
---------- Begin Simulation Statistics ----------
sim_seconds                                  0.008017                       # Number of seconds simulated
sim_ticks                                  8017206000                       # Number of ticks simulated
final_tick                                 8017206000                       # Number of ticks from beginning of simulation (restored from checkpoints and never reset)
sim_freq                                 1000000000000                       # Frequency of simulated ticks
host_inst_rate                                  13185                       # Simulator instruction rate (inst/s)
host_op_rate                                    25423                       # Simulator op (including micro ops) rate (op/s)
host_tick_rate                             1057076092                       # Simulator tick rate (ticks/s)
host_mem_usage                                8665784                       # Number of bytes of host memory used
host_seconds                                     7.58                       # Real time elapsed on the host
sim_insts                                      100001                       # Number of instructions simulated
sim_ops                                        192813                       # Number of ops (including micro ops) simulated
system.clk_domain.voltage_domain.voltage            1                       # Voltage in Volts
system.clk_domain.clock                           250                       # Clock period in ticks
system.mem_ctrl.pwrStateResidencyTicks::UNDEFINED   8017206000                       # Cumulative time (in ticks) in various power states
system.mem_ctrl.bytes_read::.cpu.inst         1094256                       # Number of bytes read from this memory
system.mem_ctrl.bytes_read::.cpu.data          118184                       # Number of bytes read from this memory
system.mem_ctrl.bytes_read::total             1212440                       # Number of bytes read from this memory
system.mem_ctrl.bytes_inst_read::.cpu.inst      1094256                       # Number of instructions bytes read from this memory
system.mem_ctrl.bytes_inst_read::total        1094256                       # Number of instructions bytes read from this memory
system.mem_ctrl.bytes_written::.cpu.data       112863                       # Number of bytes written to this memory
system.mem_ctrl.bytes_written::total           112863                       # Number of bytes written to this memory
system.mem_ctrl.num_reads::.cpu.inst           136782                       # Number of read requests responded to by this memory
system.mem_ctrl.num_reads::.cpu.data            19812                       # Number of read requests responded to by this memory
system.mem_ctrl.num_reads::total               156594                       # Number of read requests responded to by this memory
system.mem_ctrl.num_writes::.cpu.data           16573                       # Number of write requests responded to by this memory
system.mem_ctrl.num_writes::total               16573                       # Number of write requests responded to by this memory
system.mem_ctrl.bw_read::.cpu.inst          136488447                       # Total read bandwidth from this memory (bytes/s)
system.mem_ctrl.bw_read::.cpu.data           14741295                       # Total read bandwidth from this memory (bytes/s)
system.mem_ctrl.bw_read::total              151229743                       # Total read bandwidth from this memory (bytes/s)
system.mem_ctrl.bw_inst_read::.cpu.inst     136488447                       # Instruction read bandwidth from this memory (bytes/s)
system.mem_ctrl.bw_inst_read::total         136488447                       # Instruction read bandwidth from this memory (bytes/s)
system.mem_ctrl.bw_write::.cpu.data          14077598                       # Write bandwidth from this memory (bytes/s)
system.mem_ctrl.bw_write::total              14077598                       # Write bandwidth from this memory (bytes/s)
system.mem_ctrl.bw_total::.cpu.inst         136488447                       # Total bandwidth to/from this memory (bytes/s)
system.mem_ctrl.bw_total::.cpu.data          28818893                       # Total bandwidth to/from this memory (bytes/s)
system.mem_ctrl.bw_total::total             165307340                       # Total bandwidth to/from this memory (bytes/s)
system.mem_ctrl.avgPriority_.cpu.inst::samples    136783.00                       # Average QoS priority value for accepted requests
system.mem_ctrl.avgPriority_.cpu.data::samples     18232.00                       # Average QoS priority value for accepted requests
system.mem_ctrl.priorityMinLatency       0.000000018750                       # per QoS priority minimum request to response latency (s)
system.mem_ctrl.priorityMaxLatency       0.001239618750                       # per QoS priority maximum request to response latency (s)
system.mem_ctrl.numReadWriteTurnArounds            90                       # Number of turnarounds from READ to WRITE
system.mem_ctrl.numWriteReadTurnArounds            90                       # Number of turnarounds from WRITE to READ
system.mem_ctrl.numStayReadState               325609                       # Number of times bus staying in READ state
system.mem_ctrl.numStayWriteState                1357                       # Number of times bus staying in WRITE state
system.mem_ctrl.readReqs                       156595                       # Number of read requests accepted
system.mem_ctrl.writeReqs                       16573                       # Number of write requests accepted
system.mem_ctrl.readBursts                     156595                       # Number of DRAM read bursts, including those serviced by the write queue
system.mem_ctrl.writeBursts                     16573                       # Number of DRAM write bursts, including those merged in the write queue
system.mem_ctrl.bytesReadDRAM                 9826688                       # Total number of bytes read from DRAM
system.mem_ctrl.bytesReadWrQ                   195392                       # Total number of bytes read from write queue
system.mem_ctrl.bytesWritten                    92288                       # Total number of bytes written to DRAM
system.mem_ctrl.bytesReadSys                  1212448                       # Total read bytes from the system interface side
system.mem_ctrl.bytesWrittenSys                112863                       # Total written bytes from the system interface side
system.mem_ctrl.servicedByWrQ                    3053                       # Number of DRAM read bursts serviced by the write queue
system.mem_ctrl.mergedWrBursts                  15100                       # Number of DRAM write bursts merged with an existing one
system.mem_ctrl.neitherReadNorWriteReqs             0                       # Number of requests that are neither read nor write
system.mem_ctrl.perBankRdBursts::0               7333                       # Per bank write bursts
system.mem_ctrl.perBankRdBursts::1                587                       # Per bank write bursts
system.mem_ctrl.perBankRdBursts::2               3787                       # Per bank write bursts
system.mem_ctrl.perBankRdBursts::3                 64                       # Per bank write bursts
system.mem_ctrl.perBankRdBursts::4              23186                       # Per bank write bursts
system.mem_ctrl.perBankRdBursts::5              15578                       # Per bank write bursts
system.mem_ctrl.perBankRdBursts::6              12166                       # Per bank write bursts
system.mem_ctrl.perBankRdBursts::7               3675                       # Per bank write bursts
system.mem_ctrl.perBankRdBursts::8               9939                       # Per bank write bursts
system.mem_ctrl.perBankRdBursts::9              14760                       # Per bank write bursts
system.mem_ctrl.perBankRdBursts::10             53039                       # Per bank write bursts
system.mem_ctrl.perBankRdBursts::11              2449                       # Per bank write bursts
system.mem_ctrl.perBankRdBursts::12              2625                       # Per bank write bursts
system.mem_ctrl.perBankRdBursts::13              1363                       # Per bank write bursts
system.mem_ctrl.perBankRdBursts::14               431                       # Per bank write bursts
system.mem_ctrl.perBankRdBursts::15              2560                       # Per bank write bursts
system.mem_ctrl.perBankWrBursts::0                  0                       # Per bank write bursts
system.mem_ctrl.perBankWrBursts::1                157                       # Per bank write bursts
system.mem_ctrl.perBankWrBursts::2                143                       # Per bank write bursts
system.mem_ctrl.perBankWrBursts::3                  1                       # Per bank write bursts
system.mem_ctrl.perBankWrBursts::4                 14                       # Per bank write bursts
system.mem_ctrl.perBankWrBursts::5                 29                       # Per bank write bursts
system.mem_ctrl.perBankWrBursts::6                734                       # Per bank write bursts
system.mem_ctrl.perBankWrBursts::7                174                       # Per bank write bursts
system.mem_ctrl.perBankWrBursts::8                 83                       # Per bank write bursts
system.mem_ctrl.perBankWrBursts::9                  1                       # Per bank write bursts
system.mem_ctrl.perBankWrBursts::10                 0                       # Per bank write bursts
system.mem_ctrl.perBankWrBursts::11               106                       # Per bank write bursts
system.mem_ctrl.perBankWrBursts::12                 0                       # Per bank write bursts
system.mem_ctrl.perBankWrBursts::13                 0                       # Per bank write bursts
system.mem_ctrl.perBankWrBursts::14                 0                       # Per bank write bursts
system.mem_ctrl.perBankWrBursts::15                 0                       # Per bank write bursts
system.mem_ctrl.numRdRetry                          0                       # Number of times read queue was full causing retry
system.mem_ctrl.numWrRetry                          0                       # Number of times write queue was full causing retry
system.mem_ctrl.totGap                     8017137250                       # Total gap between requests
system.mem_ctrl.readPktSize::0                   3054                       # Read request sizes (log2)
system.mem_ctrl.readPktSize::1                     22                       # Read request sizes (log2)
system.mem_ctrl.readPktSize::2                   4693                       # Read request sizes (log2)
system.mem_ctrl.readPktSize::3                 148826                       # Read request sizes (log2)
system.mem_ctrl.readPktSize::4                      0                       # Read request sizes (log2)
system.mem_ctrl.readPktSize::5                      0                       # Read request sizes (log2)
system.mem_ctrl.readPktSize::6                      0                       # Read request sizes (log2)
system.mem_ctrl.writePktSize::0                   779                       # Write request sizes (log2)
system.mem_ctrl.writePktSize::1                    68                       # Write request sizes (log2)
system.mem_ctrl.writePktSize::2                  3465                       # Write request sizes (log2)
system.mem_ctrl.writePktSize::3                 12261                       # Write request sizes (log2)
system.mem_ctrl.writePktSize::4                     0                       # Write request sizes (log2)
system.mem_ctrl.writePktSize::5                     0                       # Write request sizes (log2)
system.mem_ctrl.writePktSize::6                     0                       # Write request sizes (log2)
system.mem_ctrl.rdQLenPdf::0                   153533                       # What read queue length does an incoming req see
system.mem_ctrl.rdQLenPdf::1                        9                       # What read queue length does an incoming req see
system.mem_ctrl.rdQLenPdf::2                        0                       # What read queue length does an incoming req see
system.mem_ctrl.rdQLenPdf::3                        0                       # What read queue length does an incoming req see
system.mem_ctrl.rdQLenPdf::4                        0                       # What read queue length does an incoming req see
system.mem_ctrl.rdQLenPdf::5                        0                       # What read queue length does an incoming req see
system.mem_ctrl.rdQLenPdf::6                        0                       # What read queue length does an incoming req see
system.mem_ctrl.rdQLenPdf::7                        0                       # What read queue length does an incoming req see
system.mem_ctrl.rdQLenPdf::8                        0                       # What read queue length does an incoming req see
system.mem_ctrl.rdQLenPdf::9                        0                       # What read queue length does an incoming req see
system.mem_ctrl.rdQLenPdf::10                       0                       # What read queue length does an incoming req see
system.mem_ctrl.rdQLenPdf::11                       0                       # What read queue length does an incoming req see
system.mem_ctrl.rdQLenPdf::12                       0                       # What read queue length does an incoming req see
system.mem_ctrl.rdQLenPdf::13                       0                       # What read queue length does an incoming req see
system.mem_ctrl.rdQLenPdf::14                       0                       # What read queue length does an incoming req see
system.mem_ctrl.rdQLenPdf::15                       0                       # What read queue length does an incoming req see
system.mem_ctrl.rdQLenPdf::16                       0                       # What read queue length does an incoming req see
system.mem_ctrl.rdQLenPdf::17                       0                       # What read queue length does an incoming req see
system.mem_ctrl.rdQLenPdf::18                       0                       # What read queue length does an incoming req see
system.mem_ctrl.rdQLenPdf::19                       0                       # What read queue length does an incoming req see
system.mem_ctrl.rdQLenPdf::20                       0                       # What read queue length does an incoming req see
system.mem_ctrl.rdQLenPdf::21                       0                       # What read queue length does an incoming req see
system.mem_ctrl.rdQLenPdf::22                       0                       # What read queue length does an incoming req see
system.mem_ctrl.rdQLenPdf::23                       0                       # What read queue length does an incoming req see
system.mem_ctrl.rdQLenPdf::24                       0                       # What read queue length does an incoming req see
system.mem_ctrl.rdQLenPdf::25                       0                       # What read queue length does an incoming req see
system.mem_ctrl.rdQLenPdf::26                       0                       # What read queue length does an incoming req see
system.mem_ctrl.rdQLenPdf::27                       0                       # What read queue length does an incoming req see
system.mem_ctrl.rdQLenPdf::28                       0                       # What read queue length does an incoming req see
system.mem_ctrl.rdQLenPdf::29                       0                       # What read queue length does an incoming req see
system.mem_ctrl.rdQLenPdf::30                       0                       # What read queue length does an incoming req see
system.mem_ctrl.rdQLenPdf::31                       0                       # What read queue length does an incoming req see
system.mem_ctrl.wrQLenPdf::0                        1                       # What write queue length does an incoming req see
system.mem_ctrl.wrQLenPdf::1                        1                       # What write queue length does an incoming req see
system.mem_ctrl.wrQLenPdf::2                        1                       # What write queue length does an incoming req see
system.mem_ctrl.wrQLenPdf::3                        1                       # What write queue length does an incoming req see
system.mem_ctrl.wrQLenPdf::4                        1                       # What write queue length does an incoming req see
system.mem_ctrl.wrQLenPdf::5                        1                       # What write queue length does an incoming req see
system.mem_ctrl.wrQLenPdf::6                        1                       # What write queue length does an incoming req see
system.mem_ctrl.wrQLenPdf::7                        1                       # What write queue length does an incoming req see
system.mem_ctrl.wrQLenPdf::8                        1                       # What write queue length does an incoming req see
system.mem_ctrl.wrQLenPdf::9                        1                       # What write queue length does an incoming req see
system.mem_ctrl.wrQLenPdf::10                       1                       # What write queue length does an incoming req see
system.mem_ctrl.wrQLenPdf::11                       1                       # What write queue length does an incoming req see
system.mem_ctrl.wrQLenPdf::12                       1                       # What write queue length does an incoming req see
system.mem_ctrl.wrQLenPdf::13                       1                       # What write queue length does an incoming req see
system.mem_ctrl.wrQLenPdf::14                       1                       # What write queue length does an incoming req see
system.mem_ctrl.wrQLenPdf::15                       2                       # What write queue length does an incoming req see
system.mem_ctrl.wrQLenPdf::16                       2                       # What write queue length does an incoming req see
system.mem_ctrl.wrQLenPdf::17                      91                       # What write queue length does an incoming req see
system.mem_ctrl.wrQLenPdf::18                      91                       # What write queue length does an incoming req see
system.mem_ctrl.wrQLenPdf::19                      91                       # What write queue length does an incoming req see
system.mem_ctrl.wrQLenPdf::20                      91                       # What write queue length does an incoming req see
system.mem_ctrl.wrQLenPdf::21                      91                       # What write queue length does an incoming req see
system.mem_ctrl.wrQLenPdf::22                      91                       # What write queue length does an incoming req see
system.mem_ctrl.wrQLenPdf::23                      91                       # What write queue length does an incoming req see
system.mem_ctrl.wrQLenPdf::24                      91                       # What write queue length does an incoming req see
system.mem_ctrl.wrQLenPdf::25                      91                       # What write queue length does an incoming req see
system.mem_ctrl.wrQLenPdf::26                      91                       # What write queue length does an incoming req see
system.mem_ctrl.wrQLenPdf::27                      91                       # What write queue length does an incoming req see
system.mem_ctrl.wrQLenPdf::28                      91                       # What write queue length does an incoming req see
system.mem_ctrl.wrQLenPdf::29                      91                       # What write queue length does an incoming req see
system.mem_ctrl.wrQLenPdf::30                      91                       # What write queue length does an incoming req see
system.mem_ctrl.wrQLenPdf::31                      90                       # What write queue length does an incoming req see
system.mem_ctrl.wrQLenPdf::32                      90                       # What write queue length does an incoming req see
system.mem_ctrl.wrQLenPdf::33                       0                       # What write queue length does an incoming req see
system.mem_ctrl.wrQLenPdf::34                       0                       # What write queue length does an incoming req see
system.mem_ctrl.wrQLenPdf::35                       0                       # What write queue length does an incoming req see
system.mem_ctrl.wrQLenPdf::36                       0                       # What write queue length does an incoming req see
system.mem_ctrl.wrQLenPdf::37                       0                       # What write queue length does an incoming req see
system.mem_ctrl.wrQLenPdf::38                       0                       # What write queue length does an incoming req see
system.mem_ctrl.wrQLenPdf::39                       0                       # What write queue length does an incoming req see
system.mem_ctrl.wrQLenPdf::40                       0                       # What write queue length does an incoming req see
system.mem_ctrl.wrQLenPdf::41                       0                       # What write queue length does an incoming req see
system.mem_ctrl.wrQLenPdf::42                       0                       # What write queue length does an incoming req see
system.mem_ctrl.wrQLenPdf::43                       0                       # What write queue length does an incoming req see
system.mem_ctrl.wrQLenPdf::44                       0                       # What write queue length does an incoming req see
system.mem_ctrl.wrQLenPdf::45                       0                       # What write queue length does an incoming req see
system.mem_ctrl.wrQLenPdf::46                       0                       # What write queue length does an incoming req see
system.mem_ctrl.wrQLenPdf::47                       0                       # What write queue length does an incoming req see
system.mem_ctrl.wrQLenPdf::48                       0                       # What write queue length does an incoming req see
system.mem_ctrl.wrQLenPdf::49                       0                       # What write queue length does an incoming req see
system.mem_ctrl.wrQLenPdf::50                       0                       # What write queue length does an incoming req see
system.mem_ctrl.wrQLenPdf::51                       0                       # What write queue length does an incoming req see
system.mem_ctrl.wrQLenPdf::52                       0                       # What write queue length does an incoming req see
system.mem_ctrl.wrQLenPdf::53                       0                       # What write queue length does an incoming req see
system.mem_ctrl.wrQLenPdf::54                       0                       # What write queue length does an incoming req see
system.mem_ctrl.wrQLenPdf::55                       0                       # What write queue length does an incoming req see
system.mem_ctrl.wrQLenPdf::56                       0                       # What write queue length does an incoming req see
system.mem_ctrl.wrQLenPdf::57                       0                       # What write queue length does an incoming req see
system.mem_ctrl.wrQLenPdf::58                       0                       # What write queue length does an incoming req see
system.mem_ctrl.wrQLenPdf::59                       0                       # What write queue length does an incoming req see
system.mem_ctrl.wrQLenPdf::60                       0                       # What write queue length does an incoming req see
system.mem_ctrl.wrQLenPdf::61                       0                       # What write queue length does an incoming req see
system.mem_ctrl.wrQLenPdf::62                       0                       # What write queue length does an incoming req see
system.mem_ctrl.wrQLenPdf::63                       0                       # What write queue length does an incoming req see
system.mem_ctrl.bytesPerActivate::samples        14619                       # Bytes accessed per row activation
system.mem_ctrl.bytesPerActivate::mean     678.468295                       # Bytes accessed per row activation
system.mem_ctrl.bytesPerActivate::gmean    469.795222                       # Bytes accessed per row activation
system.mem_ctrl.bytesPerActivate::stdev    402.052749                       # Bytes accessed per row activation
system.mem_ctrl.bytesPerActivate::0-127          2129     14.56%     14.56% # Bytes accessed per row activation
system.mem_ctrl.bytesPerActivate::128-255         1599     10.94%     25.50% # Bytes accessed per row activation
system.mem_ctrl.bytesPerActivate::256-383          891      6.09%     31.60% # Bytes accessed per row activation
system.mem_ctrl.bytesPerActivate::384-511          559      3.82%     35.42% # Bytes accessed per row activation
system.mem_ctrl.bytesPerActivate::512-639          642      4.39%     39.81% # Bytes accessed per row activation
system.mem_ctrl.bytesPerActivate::640-767          500      3.42%     43.23% # Bytes accessed per row activation
system.mem_ctrl.bytesPerActivate::768-895          381      2.61%     45.84% # Bytes accessed per row activation
system.mem_ctrl.bytesPerActivate::896-1023          436      2.98%     48.82% # Bytes accessed per row activation
system.mem_ctrl.bytesPerActivate::1024-1151         7482     51.18%    100.00% # Bytes accessed per row activation
system.mem_ctrl.bytesPerActivate::total         14619                       # Bytes accessed per row activation
system.mem_ctrl.rdPerTurnAround::samples           90                       # Reads before turning the bus around for writes
system.mem_ctrl.rdPerTurnAround::mean     1687.044444                       # Reads before turning the bus around for writes
system.mem_ctrl.rdPerTurnAround::gmean    1393.804143                       # Reads before turning the bus around for writes
system.mem_ctrl.rdPerTurnAround::stdev    1013.262878                       # Reads before turning the bus around for writes
system.mem_ctrl.rdPerTurnAround::256-511            4      4.44%      4.44% # Reads before turning the bus around for writes
system.mem_ctrl.rdPerTurnAround::512-767           16     17.78%     22.22% # Reads before turning the bus around for writes
system.mem_ctrl.rdPerTurnAround::768-1023           10     11.11%     33.33% # Reads before turning the bus around for writes
system.mem_ctrl.rdPerTurnAround::1024-1279            6      6.67%     40.00% # Reads before turning the bus around for writes
system.mem_ctrl.rdPerTurnAround::1280-1535            2      2.22%     42.22% # Reads before turning the bus around for writes
system.mem_ctrl.rdPerTurnAround::1536-1791            8      8.89%     51.11% # Reads before turning the bus around for writes
system.mem_ctrl.rdPerTurnAround::1792-2047           14     15.56%     66.67% # Reads before turning the bus around for writes
system.mem_ctrl.rdPerTurnAround::2048-2303           15     16.67%     83.33% # Reads before turning the bus around for writes
system.mem_ctrl.rdPerTurnAround::2304-2559            6      6.67%     90.00% # Reads before turning the bus around for writes
system.mem_ctrl.rdPerTurnAround::3328-3583            3      3.33%     93.33% # Reads before turning the bus around for writes
system.mem_ctrl.rdPerTurnAround::3584-3839            3      3.33%     96.67% # Reads before turning the bus around for writes
system.mem_ctrl.rdPerTurnAround::3840-4095            1      1.11%     97.78% # Reads before turning the bus around for writes
system.mem_ctrl.rdPerTurnAround::4096-4351            1      1.11%     98.89% # Reads before turning the bus around for writes
system.mem_ctrl.rdPerTurnAround::5632-5887            1      1.11%    100.00% # Reads before turning the bus around for writes
system.mem_ctrl.rdPerTurnAround::total             90                       # Reads before turning the bus around for writes
system.mem_ctrl.wrPerTurnAround::samples           90                       # Writes before turning the bus around for reads
system.mem_ctrl.wrPerTurnAround::mean       16.022222                       # Writes before turning the bus around for reads
system.mem_ctrl.wrPerTurnAround::gmean      16.020953                       # Writes before turning the bus around for reads
system.mem_ctrl.wrPerTurnAround::stdev       0.210819                       # Writes before turning the bus around for reads
system.mem_ctrl.wrPerTurnAround::16                89     98.89%     98.89% # Writes before turning the bus around for reads
system.mem_ctrl.wrPerTurnAround::18                 1      1.11%    100.00% # Writes before turning the bus around for reads
system.mem_ctrl.wrPerTurnAround::total             90                       # Writes before turning the bus around for reads
system.mem_ctrl.masterReadBytes::.cpu.inst      1094264                       # Per-master bytes read from memory
system.mem_ctrl.masterReadBytes::.cpu.data        99194                       # Per-master bytes read from memory
system.mem_ctrl.masterWriteBytes::.cpu.data        10323                       # Per-master bytes write to memory
system.mem_ctrl.masterReadRate::.cpu.inst 136489445.325466245413                       # Per-master bytes read from memory rate (Bytes/sec)
system.mem_ctrl.masterReadRate::.cpu.data 12372639.545497519895                       # Per-master bytes read from memory rate (Bytes/sec)
system.mem_ctrl.masterWriteRate::.cpu.data 1287605.682079267921                       # Per-master bytes write to memory rate (Bytes/sec)
system.mem_ctrl.masterReadAccesses::.cpu.inst       136783                       # Per-master read serviced memory accesses
system.mem_ctrl.masterReadAccesses::.cpu.data        19812                       # Per-master read serviced memory accesses
system.mem_ctrl.masterWriteAccesses::.cpu.data        16573                       # Per-master write serviced memory accesses
system.mem_ctrl.masterReadTotalLat::.cpu.inst   3767066750                       # Per-master read total memory access latency
system.mem_ctrl.masterReadTotalLat::.cpu.data    546467750                       # Per-master read total memory access latency
system.mem_ctrl.masterWriteTotalLat::.cpu.data 208511897000                       # Per-master write total memory access latency
system.mem_ctrl.masterReadAvgLat::.cpu.inst     27540.46                       # Per-master read average memory access latency
system.mem_ctrl.masterReadAvgLat::.cpu.data     27582.66                       # Per-master read average memory access latency
system.mem_ctrl.masterWriteAvgLat::.cpu.data  12581421.41                       # Per-master write average memory access latency
system.mem_ctrl.totQLat                    1434622000                       # Total ticks spent queuing
system.mem_ctrl.totMemAccLat               4313534500                       # Total ticks spent from burst creation until serviced by the DRAM
system.mem_ctrl.totBusLat                   767710000                       # Total ticks spent in databus transfers
system.mem_ctrl.avgQLat                       9343.52                       # Average queueing delay per DRAM burst
system.mem_ctrl.avgBusLat                     5000.00                       # Average bus latency per DRAM burst
system.mem_ctrl.avgMemAccLat                 28093.52                       # Average memory access latency per DRAM burst
system.mem_ctrl.avgRdBW                       1225.70                       # Average DRAM read bandwidth in MiByte/s
system.mem_ctrl.avgWrBW                         11.51                       # Average achieved write bandwidth in MiByte/s
system.mem_ctrl.avgRdBWSys                     151.23                       # Average system read bandwidth in MiByte/s
system.mem_ctrl.avgWrBWSys                      14.08                       # Average system write bandwidth in MiByte/s
system.mem_ctrl.peakBW                       12800.00                       # Theoretical peak bandwidth in MiByte/s
system.mem_ctrl.busUtil                          9.67                       # Data bus utilization in percentage
system.mem_ctrl.busUtilRead                      9.58                       # Data bus utilization in percentage for reads
system.mem_ctrl.busUtilWrite                     0.09                       # Data bus utilization in percentage for writes
system.mem_ctrl.avgRdQLen                        1.00                       # Average read queue length when enqueuing
system.mem_ctrl.avgWrQLen                       26.87                       # Average write queue length when enqueuing
system.mem_ctrl.readRowHits                    139120                       # Number of row buffer hits during reads
system.mem_ctrl.writeRowHits                     1241                       # Number of row buffer hits during writes
system.mem_ctrl.readRowHitRate                  90.61                       # Row buffer hit rate for reads
system.mem_ctrl.writeRowHitRate                 84.25                       # Row buffer hit rate for writes
system.mem_ctrl.avgGap                       46296.88                       # Average gap between requests
system.mem_ctrl.pageHitRate                     90.55                       # Row buffer hit rate, read and write combined
system.mem_ctrl_0.actEnergy                  51914940                       # Energy for activate commands per rank (pJ)
system.mem_ctrl_0.preEnergy                  27582060                       # Energy for precharge commands per rank (pJ)
system.mem_ctrl_0.readEnergy                473917500                       # Energy for read commands per rank (pJ)
system.mem_ctrl_0.writeEnergy                 6535440                       # Energy for write commands per rank (pJ)
system.mem_ctrl_0.refreshEnergy          630620640.000000                       # Energy for refresh commands per rank (pJ)
system.mem_ctrl_0.actBackEnergy             983517900                       # Energy for active background per rank (pJ)
system.mem_ctrl_0.preBackEnergy              17132640                       # Energy for precharge background per rank (pJ)
system.mem_ctrl_0.actPowerDownEnergy       2511795630                       # Energy for active power-down per rank (pJ)
system.mem_ctrl_0.prePowerDownEnergy        110203200                       # Energy for precharge power-down per rank (pJ)
system.mem_ctrl_0.selfRefreshEnergy          10428300                       # Energy for self refresh per rank (pJ)
system.mem_ctrl_0.totalEnergy              4823840370                       # Total energy per rank (pJ)
system.mem_ctrl_0.averagePower             601.685970                       # Core power per rank (mW)
system.mem_ctrl_0.totalIdleTime            5815433250                       # Total Idle time Per DRAM Rank
system.mem_ctrl_0.memoryStateTime::IDLE       9570000                       # Time in different power states
system.mem_ctrl_0.memoryStateTime::REF      266760000                       # Time in different power states
system.mem_ctrl_0.memoryStateTime::SREF      20013250                       # Time in different power states
system.mem_ctrl_0.memoryStateTime::PRE_PDN    287040500                       # Time in different power states
system.mem_ctrl_0.memoryStateTime::ACT     1925442750                       # Time in different power states
system.mem_ctrl_0.memoryStateTime::ACT_PDN   5508379500                       # Time in different power states
system.mem_ctrl_1.actEnergy                  52493280                       # Energy for activate commands per rank (pJ)
system.mem_ctrl_1.preEnergy                  27897045                       # Energy for precharge commands per rank (pJ)
system.mem_ctrl_1.readEnergy                622365240                       # Energy for read commands per rank (pJ)
system.mem_ctrl_1.writeEnergy                  991800                       # Energy for write commands per rank (pJ)
system.mem_ctrl_1.refreshEnergy          630620640.000000                       # Energy for refresh commands per rank (pJ)
system.mem_ctrl_1.actBackEnergy            1180686600                       # Energy for active background per rank (pJ)
system.mem_ctrl_1.preBackEnergy              29691840                       # Energy for precharge background per rank (pJ)
system.mem_ctrl_1.actPowerDownEnergy       2053460910                       # Energy for active power-down per rank (pJ)
system.mem_ctrl_1.prePowerDownEnergy        318290880                       # Energy for precharge power-down per rank (pJ)
system.mem_ctrl_1.selfRefreshEnergy          16054440                       # Energy for self refresh per rank (pJ)
system.mem_ctrl_1.totalEnergy              4933185855                       # Total energy per rank (pJ)
system.mem_ctrl_1.averagePower             615.324822                       # Core power per rank (mW)
system.mem_ctrl_1.totalIdleTime            5344750250                       # Total Idle time Per DRAM Rank
system.mem_ctrl_1.memoryStateTime::IDLE      24036750                       # Time in different power states
system.mem_ctrl_1.memoryStateTime::REF      266760000                       # Time in different power states
system.mem_ctrl_1.memoryStateTime::SREF      17168500                       # Time in different power states
system.mem_ctrl_1.memoryStateTime::PRE_PDN    828902000                       # Time in different power states
system.mem_ctrl_1.memoryStateTime::ACT     2377230500                       # Time in different power states
system.mem_ctrl_1.memoryStateTime::ACT_PDN   4503108250                       # Time in different power states
system.pwrStateResidencyTicks::UNDEFINED   8017206000                       # Cumulative time (in ticks) in various power states
system.checker.pwrStateResidencyTicks::UNDEFINED   8017206000                       # Cumulative time (in ticks) in various power states
system.cpu.dtb.walker.pwrStateResidencyTicks::UNDEFINED   8017206000                       # Cumulative time (in ticks) in various power states
system.cpu.dtb.rdAccesses                       19812                       # TLB accesses on read requests
system.cpu.dtb.wrAccesses                       16573                       # TLB accesses on write requests
system.cpu.dtb.rdMisses                            17                       # TLB misses on read requests
system.cpu.dtb.wrMisses                            18                       # TLB misses on write requests
system.cpu.apic_clk_domain.clock                 4000                       # Clock period in ticks
system.cpu.interrupts.pwrStateResidencyTicks::UNDEFINED   8017206000                       # Cumulative time (in ticks) in various power states
system.cpu.itb.walker.pwrStateResidencyTicks::UNDEFINED   8017206000                       # Cumulative time (in ticks) in various power states
system.cpu.itb.rdAccesses                           0                       # TLB accesses on read requests
system.cpu.itb.wrAccesses                      136783                       # TLB accesses on write requests
system.cpu.itb.rdMisses                             0                       # TLB misses on read requests
system.cpu.itb.wrMisses                            48                       # TLB misses on write requests
system.cpu.workload.numSyscalls                    23                       # Number of system calls
system.cpu.pwrStateResidencyTicks::ON      8017206000                       # Cumulative time (in ticks) in various power states
system.cpu.numCycles                         32068824                       # number of cpu cycles simulated
system.cpu.numWorkItemsStarted                      0                       # number of work items this cpu started
system.cpu.numWorkItemsCompleted                    0                       # number of work items this cpu completed
system.cpu.committedInsts                      100001                       # Number of instructions committed
system.cpu.committedOps                        192813                       # Number of ops (including micro ops) committed
system.cpu.num_int_alu_accesses                190397                       # Number of integer alu accesses
system.cpu.num_fp_alu_accesses                   2440                       # Number of float alu accesses
system.cpu.num_vec_alu_accesses                     0                       # Number of vector alu accesses
system.cpu.num_func_calls                        2405                       # number of times a function call or return occured
system.cpu.num_conditional_control_insts        18731                       # number of instructions that are conditional controls
system.cpu.num_int_insts                       190397                       # number of integer instructions
system.cpu.num_fp_insts                          2440                       # number of float instructions
system.cpu.num_vec_insts                            0                       # number of vector instructions
system.cpu.num_int_register_reads              367765                       # number of times the integer registers were read
system.cpu.num_int_register_writes             150499                       # number of times the integer registers were written
system.cpu.num_fp_register_reads                 3692                       # number of times the floating registers were read
system.cpu.num_fp_register_writes                1936                       # number of times the floating registers were written
system.cpu.num_vec_register_reads                   0                       # number of times the vector registers were read
system.cpu.num_vec_register_writes                  0                       # number of times the vector registers were written
system.cpu.num_cc_register_reads               122350                       # number of times the CC registers were read
system.cpu.num_cc_register_writes               59651                       # number of times the CC registers were written
system.cpu.num_mem_refs                         36376                       # number of memory refs
system.cpu.num_load_insts                       19803                       # Number of load instructions
system.cpu.num_store_insts                      16573                       # Number of store instructions
system.cpu.num_idle_cycles                          0                       # Number of idle cycles
system.cpu.num_busy_cycles                   32068824                       # Number of busy cycles
system.cpu.not_idle_fraction                        1                       # Percentage of non-idle cycles
system.cpu.idle_fraction                            0                       # Percentage of idle cycles
system.cpu.Branches                             23494                       # Number of branches fetched
system.cpu.op_class::No_OpClass                   668      0.35%      0.35% # Class of executed instruction
system.cpu.op_class::IntAlu                    153555     79.64%     79.99% # Class of executed instruction
system.cpu.op_class::IntMult                      370      0.19%     80.18% # Class of executed instruction
system.cpu.op_class::IntDiv                        28      0.01%     80.19% # Class of executed instruction
system.cpu.op_class::FloatAdd                     126      0.07%     80.26% # Class of executed instruction
system.cpu.op_class::FloatCmp                       0      0.00%     80.26% # Class of executed instruction
system.cpu.op_class::FloatCvt                       0      0.00%     80.26% # Class of executed instruction
system.cpu.op_class::FloatMult                      0      0.00%     80.26% # Class of executed instruction
system.cpu.op_class::FloatMultAcc                   0      0.00%     80.26% # Class of executed instruction
system.cpu.op_class::FloatDiv                       0      0.00%     80.26% # Class of executed instruction
system.cpu.op_class::FloatMisc                      0      0.00%     80.26% # Class of executed instruction
system.cpu.op_class::FloatSqrt                      0      0.00%     80.26% # Class of executed instruction
system.cpu.op_class::SimdAdd                        0      0.00%     80.26% # Class of executed instruction
system.cpu.op_class::SimdAddAcc                     0      0.00%     80.26% # Class of executed instruction
system.cpu.op_class::SimdAlu                      102      0.05%     80.31% # Class of executed instruction
system.cpu.op_class::SimdCmp                        6      0.00%     80.31% # Class of executed instruction
system.cpu.op_class::SimdCvt                      348      0.18%     80.49% # Class of executed instruction
system.cpu.op_class::SimdMisc                    1234      0.64%     81.13% # Class of executed instruction
system.cpu.op_class::SimdMult                       0      0.00%     81.13% # Class of executed instruction
system.cpu.op_class::SimdMultAcc                    0      0.00%     81.13% # Class of executed instruction
system.cpu.op_class::SimdShift                      0      0.00%     81.13% # Class of executed instruction
system.cpu.op_class::SimdShiftAcc                   0      0.00%     81.13% # Class of executed instruction
system.cpu.op_class::SimdSqrt                       0      0.00%     81.13% # Class of executed instruction
system.cpu.op_class::SimdFloatAdd                   0      0.00%     81.13% # Class of executed instruction
system.cpu.op_class::SimdFloatAlu                   0      0.00%     81.13% # Class of executed instruction
system.cpu.op_class::SimdFloatCmp                   0      0.00%     81.13% # Class of executed instruction
system.cpu.op_class::SimdFloatCvt                   0      0.00%     81.13% # Class of executed instruction
system.cpu.op_class::SimdFloatDiv                   0      0.00%     81.13% # Class of executed instruction
system.cpu.op_class::SimdFloatMisc                  0      0.00%     81.13% # Class of executed instruction
system.cpu.op_class::SimdFloatMult                  0      0.00%     81.13% # Class of executed instruction
system.cpu.op_class::SimdFloatMultAcc               0      0.00%     81.13% # Class of executed instruction
system.cpu.op_class::SimdFloatSqrt                  0      0.00%     81.13% # Class of executed instruction
system.cpu.op_class::SimdAes                        0      0.00%     81.13% # Class of executed instruction
system.cpu.op_class::SimdAesMix                     0      0.00%     81.13% # Class of executed instruction
system.cpu.op_class::SimdSha1Hash                   0      0.00%     81.13% # Class of executed instruction
system.cpu.op_class::SimdSha1Hash2                  0      0.00%     81.13% # Class of executed instruction
system.cpu.op_class::SimdSha256Hash                 0      0.00%     81.13% # Class of executed instruction
system.cpu.op_class::SimdSha256Hash2                0      0.00%     81.13% # Class of executed instruction
system.cpu.op_class::SimdShaSigma2                  0      0.00%     81.13% # Class of executed instruction
system.cpu.op_class::SimdShaSigma3                  0      0.00%     81.13% # Class of executed instruction
system.cpu.op_class::MemRead                    19473     10.10%     91.23% # Class of executed instruction
system.cpu.op_class::MemWrite                   16421      8.52%     99.75% # Class of executed instruction
system.cpu.op_class::FloatMemRead                 330      0.17%     99.92% # Class of executed instruction
system.cpu.op_class::FloatMemWrite                152      0.08%    100.00% # Class of executed instruction
system.cpu.op_class::IprAccess                      0      0.00%    100.00% # Class of executed instruction
system.cpu.op_class::InstPrefetch                   0      0.00%    100.00% # Class of executed instruction
system.cpu.op_class::total                     192813                       # Class of executed instruction
system.membus.snoop_filter.tot_requests             0                       # Total number of requests made to the snoop filter.
system.membus.snoop_filter.hit_single_requests            0                       # Number of requests hitting in the snoop filter with a single holder of the requested data.
system.membus.snoop_filter.hit_multi_requests            0                       # Number of requests hitting in the snoop filter with multiple (>1) holders of the requested data.
system.membus.snoop_filter.tot_snoops               0                       # Total number of snoops made to the snoop filter.
system.membus.snoop_filter.hit_single_snoops            0                       # Number of snoops hitting in the snoop filter with a single holder of the requested data.
system.membus.snoop_filter.hit_multi_snoops            0                       # Number of snoops hitting in the snoop filter with multiple (>1) holders of the requested data.
system.membus.pwrStateResidencyTicks::UNDEFINED   8017206000                       # Cumulative time (in ticks) in various power states
system.membus.trans_dist::ReadReq              156595                       # Transaction distribution
system.membus.trans_dist::ReadResp             156594                       # Transaction distribution
system.membus.trans_dist::WriteReq              16573                       # Transaction distribution
system.membus.trans_dist::WriteResp             16573                       # Transaction distribution
system.membus.pkt_count_system.checker-master::system.mem_ctrl.port        72770                       # Packet count per connected master and slave (bytes)
system.membus.pkt_count_system.checker-master::total        72770                       # Packet count per connected master and slave (bytes)
system.membus.pkt_count_system.cpu.icache_port::system.mem_ctrl.port       273565                       # Packet count per connected master and slave (bytes)
system.membus.pkt_count_system.cpu.icache_port::total       273565                       # Packet count per connected master and slave (bytes)
system.membus.pkt_count::total                 346335                       # Packet count per connected master and slave (bytes)
system.membus.pkt_size_system.checker-master::system.mem_ctrl.port       231047                       # Cumulative packet size per connected master and slave (bytes)
system.membus.pkt_size_system.checker-master::total       231047                       # Cumulative packet size per connected master and slave (bytes)
system.membus.pkt_size_system.cpu.icache_port::system.mem_ctrl.port      1094256                       # Cumulative packet size per connected master and slave (bytes)
system.membus.pkt_size_system.cpu.icache_port::total      1094256                       # Cumulative packet size per connected master and slave (bytes)
system.membus.pkt_size::total                 1325303                       # Cumulative packet size per connected master and slave (bytes)
system.membus.snoops                                0                       # Total snoops (count)
system.membus.snoopTraffic                          0                       # Total snoop traffic (bytes)
system.membus.snoop_fanout::samples            173168                       # Request fanout histogram
system.membus.snoop_fanout::mean                    0                       # Request fanout histogram
system.membus.snoop_fanout::stdev                   0                       # Request fanout histogram
system.membus.snoop_fanout::underflows              0      0.00%      0.00% # Request fanout histogram
system.membus.snoop_fanout::0                  173168    100.00%    100.00% # Request fanout histogram
system.membus.snoop_fanout::1                       0      0.00%    100.00% # Request fanout histogram
system.membus.snoop_fanout::overflows               0      0.00%    100.00% # Request fanout histogram
system.membus.snoop_fanout::min_value               0                       # Request fanout histogram
system.membus.snoop_fanout::max_value               0                       # Request fanout histogram
system.membus.snoop_fanout::total              173168                       # Request fanout histogram
system.membus.reqLayer2.occupancy            47435250                       # Layer occupancy (ticks)
system.membus.reqLayer2.utilization               0.6                       # Layer utilization (%)
system.membus.respLayer0.occupancy           14049250                       # Layer occupancy (ticks)
system.membus.respLayer0.utilization              0.2                       # Layer utilization (%)
system.membus.respLayer1.occupancy           68391000                       # Layer occupancy (ticks)
system.membus.respLayer1.utilization              0.9                       # Layer utilization (%)

---------- End Simulation Statistics   ----------
