
---------- Begin Simulation Statistics ----------
sim_seconds                                  0.008597                       # Number of seconds simulated
sim_ticks                                  8596570000                       # Number of ticks simulated
final_tick                                 8596570000                       # Number of ticks from beginning of simulation (restored from checkpoints and never reset)
sim_freq                                 1000000000000                       # Frequency of simulated ticks
host_inst_rate                                  12678                       # Simulator instruction rate (inst/s)
host_op_rate                                    23548                       # Simulator op (including micro ops) rate (op/s)
host_tick_rate                             1089881977                       # Simulator tick rate (ticks/s)
host_mem_usage                                4156004                       # Number of bytes of host memory used
host_seconds                                     7.89                       # Real time elapsed on the host
sim_insts                                      100000                       # Number of instructions simulated
sim_ops                                        185735                       # Number of ops (including micro ops) simulated
system.clk_domain.voltage_domain.voltage            1                       # Voltage in Volts
system.clk_domain.clock                           500                       # Clock period in ticks
system.mem_ctrl.pwrStateResidencyTicks::UNDEFINED   8596570000                       # Cumulative time (in ticks) in various power states
system.mem_ctrl.bytes_read::.cpu.inst         1055384                       # Number of bytes read from this memory
system.mem_ctrl.bytes_read::.cpu.data          147382                       # Number of bytes read from this memory
system.mem_ctrl.bytes_read::total             1202766                       # Number of bytes read from this memory
system.mem_ctrl.bytes_inst_read::.cpu.inst      1055384                       # Number of instructions bytes read from this memory
system.mem_ctrl.bytes_inst_read::total        1055384                       # Number of instructions bytes read from this memory
system.mem_ctrl.bytes_written::.cpu.data        83700                       # Number of bytes written to this memory
system.mem_ctrl.bytes_written::total            83700                       # Number of bytes written to this memory
system.mem_ctrl.num_reads::.cpu.inst           131923                       # Number of read requests responded to by this memory
system.mem_ctrl.num_reads::.cpu.data            27036                       # Number of read requests responded to by this memory
system.mem_ctrl.num_reads::total               158959                       # Number of read requests responded to by this memory
system.mem_ctrl.num_writes::.cpu.data           13065                       # Number of write requests responded to by this memory
system.mem_ctrl.num_writes::total               13065                       # Number of write requests responded to by this memory
system.mem_ctrl.bw_read::.cpu.inst          122768034                       # Total read bandwidth from this memory (bytes/s)
system.mem_ctrl.bw_read::.cpu.data           17144280                       # Total read bandwidth from this memory (bytes/s)
system.mem_ctrl.bw_read::total              139912314                       # Total read bandwidth from this memory (bytes/s)
system.mem_ctrl.bw_inst_read::.cpu.inst     122768034                       # Instruction read bandwidth from this memory (bytes/s)
system.mem_ctrl.bw_inst_read::total         122768034                       # Instruction read bandwidth from this memory (bytes/s)
system.mem_ctrl.bw_write::.cpu.data           9736441                       # Write bandwidth from this memory (bytes/s)
system.mem_ctrl.bw_write::total               9736441                       # Write bandwidth from this memory (bytes/s)
system.mem_ctrl.bw_total::.cpu.inst         122768034                       # Total bandwidth to/from this memory (bytes/s)
system.mem_ctrl.bw_total::.cpu.data          26880721                       # Total bandwidth to/from this memory (bytes/s)
system.mem_ctrl.bw_total::total             149648755                       # Total bandwidth to/from this memory (bytes/s)
system.mem_ctrl.avgPriority_.cpu.inst::samples    131924.00                       # Average QoS priority value for accepted requests
system.mem_ctrl.avgPriority_.cpu.data::samples     26098.00                       # Average QoS priority value for accepted requests
system.mem_ctrl.priorityMinLatency       0.000000018750                       # per QoS priority minimum request to response latency (s)
system.mem_ctrl.priorityMaxLatency       0.008395583750                       # per QoS priority maximum request to response latency (s)
system.mem_ctrl.numReadWriteTurnArounds            50                       # Number of turnarounds from READ to WRITE
system.mem_ctrl.numWriteReadTurnArounds            50                       # Number of turnarounds from WRITE to READ
system.mem_ctrl.numStayReadState               329333                       # Number of times bus staying in READ state
system.mem_ctrl.numStayWriteState                 812                       # Number of times bus staying in WRITE state
system.mem_ctrl.readReqs                       158960                       # Number of read requests accepted
system.mem_ctrl.writeReqs                       13065                       # Number of write requests accepted
system.mem_ctrl.readBursts                     158960                       # Number of DRAM read bursts, including those serviced by the write queue
system.mem_ctrl.writeBursts                     13065                       # Number of DRAM write bursts, including those merged in the write queue
system.mem_ctrl.bytesReadDRAM                10059776                       # Total number of bytes read from DRAM
system.mem_ctrl.bytesReadWrQ                   113664                       # Total number of bytes read from write queue
system.mem_ctrl.bytesWritten                    51840                       # Total number of bytes written to DRAM
system.mem_ctrl.bytesReadSys                  1202774                       # Total read bytes from the system interface side
system.mem_ctrl.bytesWrittenSys                 83700                       # Total written bytes from the system interface side
system.mem_ctrl.servicedByWrQ                    1776                       # Number of DRAM read bursts serviced by the write queue
system.mem_ctrl.mergedWrBursts                  12227                       # Number of DRAM write bursts merged with an existing one
system.mem_ctrl.neitherReadNorWriteReqs             0                       # Number of requests that are neither read nor write
system.mem_ctrl.perBankRdBursts::0               1392                       # Per bank write bursts
system.mem_ctrl.perBankRdBursts::1               2239                       # Per bank write bursts
system.mem_ctrl.perBankRdBursts::2               2430                       # Per bank write bursts
system.mem_ctrl.perBankRdBursts::3              15416                       # Per bank write bursts
system.mem_ctrl.perBankRdBursts::4               1216                       # Per bank write bursts
system.mem_ctrl.perBankRdBursts::5               2535                       # Per bank write bursts
system.mem_ctrl.perBankRdBursts::6               1728                       # Per bank write bursts
system.mem_ctrl.perBankRdBursts::7               4605                       # Per bank write bursts
system.mem_ctrl.perBankRdBursts::8              23123                       # Per bank write bursts
system.mem_ctrl.perBankRdBursts::9               3665                       # Per bank write bursts
system.mem_ctrl.perBankRdBursts::10              9926                       # Per bank write bursts
system.mem_ctrl.perBankRdBursts::11             55970                       # Per bank write bursts
system.mem_ctrl.perBankRdBursts::12             25474                       # Per bank write bursts
system.mem_ctrl.perBankRdBursts::13              3283                       # Per bank write bursts
system.mem_ctrl.perBankRdBursts::14              2521                       # Per bank write bursts
system.mem_ctrl.perBankRdBursts::15              1661                       # Per bank write bursts
system.mem_ctrl.perBankWrBursts::0                  0                       # Per bank write bursts
system.mem_ctrl.perBankWrBursts::1                 92                       # Per bank write bursts
system.mem_ctrl.perBankWrBursts::2                117                       # Per bank write bursts
system.mem_ctrl.perBankWrBursts::3                 76                       # Per bank write bursts
system.mem_ctrl.perBankWrBursts::4                  6                       # Per bank write bursts
system.mem_ctrl.perBankWrBursts::5                 10                       # Per bank write bursts
system.mem_ctrl.perBankWrBursts::6                  4                       # Per bank write bursts
system.mem_ctrl.perBankWrBursts::7                 73                       # Per bank write bursts
system.mem_ctrl.perBankWrBursts::8                139                       # Per bank write bursts
system.mem_ctrl.perBankWrBursts::9                 92                       # Per bank write bursts
system.mem_ctrl.perBankWrBursts::10               201                       # Per bank write bursts
system.mem_ctrl.perBankWrBursts::11                 0                       # Per bank write bursts
system.mem_ctrl.perBankWrBursts::12                 0                       # Per bank write bursts
system.mem_ctrl.perBankWrBursts::13                 0                       # Per bank write bursts
system.mem_ctrl.perBankWrBursts::14                 0                       # Per bank write bursts
system.mem_ctrl.perBankWrBursts::15                 0                       # Per bank write bursts
system.mem_ctrl.numRdRetry                          0                       # Number of times read queue was full causing retry
system.mem_ctrl.numWrRetry                          0                       # Number of times write queue was full causing retry
system.mem_ctrl.totGap                     8596498500                       # Total gap between requests
system.mem_ctrl.readPktSize::0                   7099                       # Read request sizes (log2)
system.mem_ctrl.readPktSize::1                   1012                       # Read request sizes (log2)
system.mem_ctrl.readPktSize::2                   3285                       # Read request sizes (log2)
system.mem_ctrl.readPktSize::3                 147564                       # Read request sizes (log2)
system.mem_ctrl.readPktSize::4                      0                       # Read request sizes (log2)
system.mem_ctrl.readPktSize::5                      0                       # Read request sizes (log2)
system.mem_ctrl.readPktSize::6                      0                       # Read request sizes (log2)
system.mem_ctrl.writePktSize::0                  2144                       # Write request sizes (log2)
system.mem_ctrl.writePktSize::1                    91                       # Write request sizes (log2)
system.mem_ctrl.writePktSize::2                  1316                       # Write request sizes (log2)
system.mem_ctrl.writePktSize::3                  9514                       # Write request sizes (log2)
system.mem_ctrl.writePktSize::4                     0                       # Write request sizes (log2)
system.mem_ctrl.writePktSize::5                     0                       # Write request sizes (log2)
system.mem_ctrl.writePktSize::6                     0                       # Write request sizes (log2)
system.mem_ctrl.rdQLenPdf::0                   157184                       # What read queue length does an incoming req see
system.mem_ctrl.rdQLenPdf::1                        0                       # What read queue length does an incoming req see
system.mem_ctrl.rdQLenPdf::2                        0                       # What read queue length does an incoming req see
system.mem_ctrl.rdQLenPdf::3                        0                       # What read queue length does an incoming req see
system.mem_ctrl.rdQLenPdf::4                        0                       # What read queue length does an incoming req see
system.mem_ctrl.rdQLenPdf::5                        0                       # What read queue length does an incoming req see
system.mem_ctrl.rdQLenPdf::6                        0                       # What read queue length does an incoming req see
system.mem_ctrl.rdQLenPdf::7                        0                       # What read queue length does an incoming req see
system.mem_ctrl.rdQLenPdf::8                        0                       # What read queue length does an incoming req see
system.mem_ctrl.rdQLenPdf::9                        0                       # What read queue length does an incoming req see
system.mem_ctrl.rdQLenPdf::10                       0                       # What read queue length does an incoming req see
system.mem_ctrl.rdQLenPdf::11                       0                       # What read queue length does an incoming req see
system.mem_ctrl.rdQLenPdf::12                       0                       # What read queue length does an incoming req see
system.mem_ctrl.rdQLenPdf::13                       0                       # What read queue length does an incoming req see
system.mem_ctrl.rdQLenPdf::14                       0                       # What read queue length does an incoming req see
system.mem_ctrl.rdQLenPdf::15                       0                       # What read queue length does an incoming req see
system.mem_ctrl.rdQLenPdf::16                       0                       # What read queue length does an incoming req see
system.mem_ctrl.rdQLenPdf::17                       0                       # What read queue length does an incoming req see
system.mem_ctrl.rdQLenPdf::18                       0                       # What read queue length does an incoming req see
system.mem_ctrl.rdQLenPdf::19                       0                       # What read queue length does an incoming req see
system.mem_ctrl.rdQLenPdf::20                       0                       # What read queue length does an incoming req see
system.mem_ctrl.rdQLenPdf::21                       0                       # What read queue length does an incoming req see
system.mem_ctrl.rdQLenPdf::22                       0                       # What read queue length does an incoming req see
system.mem_ctrl.rdQLenPdf::23                       0                       # What read queue length does an incoming req see
system.mem_ctrl.rdQLenPdf::24                       0                       # What read queue length does an incoming req see
system.mem_ctrl.rdQLenPdf::25                       0                       # What read queue length does an incoming req see
system.mem_ctrl.rdQLenPdf::26                       0                       # What read queue length does an incoming req see
system.mem_ctrl.rdQLenPdf::27                       0                       # What read queue length does an incoming req see
system.mem_ctrl.rdQLenPdf::28                       0                       # What read queue length does an incoming req see
system.mem_ctrl.rdQLenPdf::29                       0                       # What read queue length does an incoming req see
system.mem_ctrl.rdQLenPdf::30                       0                       # What read queue length does an incoming req see
system.mem_ctrl.rdQLenPdf::31                       0                       # What read queue length does an incoming req see
system.mem_ctrl.wrQLenPdf::0                        1                       # What write queue length does an incoming req see
system.mem_ctrl.wrQLenPdf::1                        1                       # What write queue length does an incoming req see
system.mem_ctrl.wrQLenPdf::2                        1                       # What write queue length does an incoming req see
system.mem_ctrl.wrQLenPdf::3                        1                       # What write queue length does an incoming req see
system.mem_ctrl.wrQLenPdf::4                        1                       # What write queue length does an incoming req see
system.mem_ctrl.wrQLenPdf::5                        1                       # What write queue length does an incoming req see
system.mem_ctrl.wrQLenPdf::6                        1                       # What write queue length does an incoming req see
system.mem_ctrl.wrQLenPdf::7                        1                       # What write queue length does an incoming req see
system.mem_ctrl.wrQLenPdf::8                        1                       # What write queue length does an incoming req see
system.mem_ctrl.wrQLenPdf::9                        1                       # What write queue length does an incoming req see
system.mem_ctrl.wrQLenPdf::10                       1                       # What write queue length does an incoming req see
system.mem_ctrl.wrQLenPdf::11                       1                       # What write queue length does an incoming req see
system.mem_ctrl.wrQLenPdf::12                       1                       # What write queue length does an incoming req see
system.mem_ctrl.wrQLenPdf::13                       1                       # What write queue length does an incoming req see
system.mem_ctrl.wrQLenPdf::14                       1                       # What write queue length does an incoming req see
system.mem_ctrl.wrQLenPdf::15                       6                       # What write queue length does an incoming req see
system.mem_ctrl.wrQLenPdf::16                       6                       # What write queue length does an incoming req see
system.mem_ctrl.wrQLenPdf::17                      51                       # What write queue length does an incoming req see
system.mem_ctrl.wrQLenPdf::18                      51                       # What write queue length does an incoming req see
system.mem_ctrl.wrQLenPdf::19                      51                       # What write queue length does an incoming req see
system.mem_ctrl.wrQLenPdf::20                      51                       # What write queue length does an incoming req see
system.mem_ctrl.wrQLenPdf::21                      51                       # What write queue length does an incoming req see
system.mem_ctrl.wrQLenPdf::22                      51                       # What write queue length does an incoming req see
system.mem_ctrl.wrQLenPdf::23                      51                       # What write queue length does an incoming req see
system.mem_ctrl.wrQLenPdf::24                      51                       # What write queue length does an incoming req see
system.mem_ctrl.wrQLenPdf::25                      51                       # What write queue length does an incoming req see
system.mem_ctrl.wrQLenPdf::26                      51                       # What write queue length does an incoming req see
system.mem_ctrl.wrQLenPdf::27                      51                       # What write queue length does an incoming req see
system.mem_ctrl.wrQLenPdf::28                      50                       # What write queue length does an incoming req see
system.mem_ctrl.wrQLenPdf::29                      50                       # What write queue length does an incoming req see
system.mem_ctrl.wrQLenPdf::30                      50                       # What write queue length does an incoming req see
system.mem_ctrl.wrQLenPdf::31                      50                       # What write queue length does an incoming req see
system.mem_ctrl.wrQLenPdf::32                      50                       # What write queue length does an incoming req see
system.mem_ctrl.wrQLenPdf::33                       0                       # What write queue length does an incoming req see
system.mem_ctrl.wrQLenPdf::34                       0                       # What write queue length does an incoming req see
system.mem_ctrl.wrQLenPdf::35                       0                       # What write queue length does an incoming req see
system.mem_ctrl.wrQLenPdf::36                       0                       # What write queue length does an incoming req see
system.mem_ctrl.wrQLenPdf::37                       0                       # What write queue length does an incoming req see
system.mem_ctrl.wrQLenPdf::38                       0                       # What write queue length does an incoming req see
system.mem_ctrl.wrQLenPdf::39                       0                       # What write queue length does an incoming req see
system.mem_ctrl.wrQLenPdf::40                       0                       # What write queue length does an incoming req see
system.mem_ctrl.wrQLenPdf::41                       0                       # What write queue length does an incoming req see
system.mem_ctrl.wrQLenPdf::42                       0                       # What write queue length does an incoming req see
system.mem_ctrl.wrQLenPdf::43                       0                       # What write queue length does an incoming req see
system.mem_ctrl.wrQLenPdf::44                       0                       # What write queue length does an incoming req see
system.mem_ctrl.wrQLenPdf::45                       0                       # What write queue length does an incoming req see
system.mem_ctrl.wrQLenPdf::46                       0                       # What write queue length does an incoming req see
system.mem_ctrl.wrQLenPdf::47                       0                       # What write queue length does an incoming req see
system.mem_ctrl.wrQLenPdf::48                       0                       # What write queue length does an incoming req see
system.mem_ctrl.wrQLenPdf::49                       0                       # What write queue length does an incoming req see
system.mem_ctrl.wrQLenPdf::50                       0                       # What write queue length does an incoming req see
system.mem_ctrl.wrQLenPdf::51                       0                       # What write queue length does an incoming req see
system.mem_ctrl.wrQLenPdf::52                       0                       # What write queue length does an incoming req see
system.mem_ctrl.wrQLenPdf::53                       0                       # What write queue length does an incoming req see
system.mem_ctrl.wrQLenPdf::54                       0                       # What write queue length does an incoming req see
system.mem_ctrl.wrQLenPdf::55                       0                       # What write queue length does an incoming req see
system.mem_ctrl.wrQLenPdf::56                       0                       # What write queue length does an incoming req see
system.mem_ctrl.wrQLenPdf::57                       0                       # What write queue length does an incoming req see
system.mem_ctrl.wrQLenPdf::58                       0                       # What write queue length does an incoming req see
system.mem_ctrl.wrQLenPdf::59                       0                       # What write queue length does an incoming req see
system.mem_ctrl.wrQLenPdf::60                       0                       # What write queue length does an incoming req see
system.mem_ctrl.wrQLenPdf::61                       0                       # What write queue length does an incoming req see
system.mem_ctrl.wrQLenPdf::62                       0                       # What write queue length does an incoming req see
system.mem_ctrl.wrQLenPdf::63                       0                       # What write queue length does an incoming req see
system.mem_ctrl.bytesPerActivate::samples        15199                       # Bytes accessed per row activation
system.mem_ctrl.bytesPerActivate::mean     665.205869                       # Bytes accessed per row activation
system.mem_ctrl.bytesPerActivate::gmean    451.167500                       # Bytes accessed per row activation
system.mem_ctrl.bytesPerActivate::stdev    405.955142                       # Bytes accessed per row activation
system.mem_ctrl.bytesPerActivate::0-127          2443     16.07%     16.07% # Bytes accessed per row activation
system.mem_ctrl.bytesPerActivate::128-255         1704     11.21%     27.28% # Bytes accessed per row activation
system.mem_ctrl.bytesPerActivate::256-383          786      5.17%     32.46% # Bytes accessed per row activation
system.mem_ctrl.bytesPerActivate::384-511          608      4.00%     36.46% # Bytes accessed per row activation
system.mem_ctrl.bytesPerActivate::512-639          583      3.84%     40.29% # Bytes accessed per row activation
system.mem_ctrl.bytesPerActivate::640-767          638      4.20%     44.49% # Bytes accessed per row activation
system.mem_ctrl.bytesPerActivate::768-895          585      3.85%     48.34% # Bytes accessed per row activation
system.mem_ctrl.bytesPerActivate::896-1023          303      1.99%     50.33% # Bytes accessed per row activation
system.mem_ctrl.bytesPerActivate::1024-1151         7549     49.67%    100.00% # Bytes accessed per row activation
system.mem_ctrl.bytesPerActivate::total         15199                       # Bytes accessed per row activation
system.mem_ctrl.rdPerTurnAround::samples           50                       # Reads before turning the bus around for writes
system.mem_ctrl.rdPerTurnAround::mean     2722.940000                       # Reads before turning the bus around for writes
system.mem_ctrl.rdPerTurnAround::stdev    7596.846866                       # Reads before turning the bus around for writes
system.mem_ctrl.rdPerTurnAround::0-2047            44     88.00%     88.00% # Reads before turning the bus around for writes
system.mem_ctrl.rdPerTurnAround::2048-4095            1      2.00%     90.00% # Reads before turning the bus around for writes
system.mem_ctrl.rdPerTurnAround::4096-6143            1      2.00%     92.00% # Reads before turning the bus around for writes
system.mem_ctrl.rdPerTurnAround::8192-10239            2      4.00%     96.00% # Reads before turning the bus around for writes
system.mem_ctrl.rdPerTurnAround::26624-28671            1      2.00%     98.00% # Reads before turning the bus around for writes
system.mem_ctrl.rdPerTurnAround::45056-47103            1      2.00%    100.00% # Reads before turning the bus around for writes
system.mem_ctrl.rdPerTurnAround::total             50                       # Reads before turning the bus around for writes
system.mem_ctrl.wrPerTurnAround::samples           50                       # Writes before turning the bus around for reads
system.mem_ctrl.wrPerTurnAround::mean       16.200000                       # Writes before turning the bus around for reads
system.mem_ctrl.wrPerTurnAround::gmean      16.189567                       # Writes before turning the bus around for reads
system.mem_ctrl.wrPerTurnAround::stdev       0.606092                       # Writes before turning the bus around for reads
system.mem_ctrl.wrPerTurnAround::16                45     90.00%     90.00% # Writes before turning the bus around for reads
system.mem_ctrl.wrPerTurnAround::18                 5     10.00%    100.00% # Writes before turning the bus around for reads
system.mem_ctrl.wrPerTurnAround::total             50                       # Writes before turning the bus around for reads
system.mem_ctrl.masterReadBytes::.cpu.inst      1055392                       # Per-master bytes read from memory
system.mem_ctrl.masterReadBytes::.cpu.data       133921                       # Per-master bytes read from memory
system.mem_ctrl.masterWriteBytes::.cpu.data         5835                       # Per-master bytes write to memory
system.mem_ctrl.masterReadRate::.cpu.inst 122768964.831322267652                       # Per-master bytes read from memory rate (Bytes/sec)
system.mem_ctrl.masterReadRate::.cpu.data 15578422.556903509423                       # Per-master bytes read from memory rate (Bytes/sec)
system.mem_ctrl.masterWriteRate::.cpu.data 678759.086472860770                       # Per-master bytes write to memory rate (Bytes/sec)
system.mem_ctrl.masterReadAccesses::.cpu.inst       131924                       # Per-master read serviced memory accesses
system.mem_ctrl.masterReadAccesses::.cpu.data        27036                       # Per-master read serviced memory accesses
system.mem_ctrl.masterWriteAccesses::.cpu.data        13065                       # Per-master write serviced memory accesses
system.mem_ctrl.masterReadTotalLat::.cpu.inst   3618052500                       # Per-master read total memory access latency
system.mem_ctrl.masterReadTotalLat::.cpu.data    783586000                       # Per-master read total memory access latency
system.mem_ctrl.masterWriteTotalLat::.cpu.data 194841476000                       # Per-master write total memory access latency
system.mem_ctrl.masterReadAvgLat::.cpu.inst     27425.28                       # Per-master read average memory access latency
system.mem_ctrl.masterReadAvgLat::.cpu.data     28983.06                       # Per-master read average memory access latency
system.mem_ctrl.masterWriteAvgLat::.cpu.data  14913239.65                       # Per-master write average memory access latency
system.mem_ctrl.totQLat                    1454438500                       # Total ticks spent queuing
system.mem_ctrl.totMemAccLat               4401638500                       # Total ticks spent from burst creation until serviced by the DRAM
system.mem_ctrl.totBusLat                   785920000                       # Total ticks spent in databus transfers
system.mem_ctrl.avgQLat                       9253.10                       # Average queueing delay per DRAM burst
system.mem_ctrl.avgBusLat                     5000.00                       # Average bus latency per DRAM burst
system.mem_ctrl.avgMemAccLat                 28003.10                       # Average memory access latency per DRAM burst
system.mem_ctrl.avgRdBW                       1170.21                       # Average DRAM read bandwidth in MiByte/s
system.mem_ctrl.avgWrBW                          6.03                       # Average achieved write bandwidth in MiByte/s
system.mem_ctrl.avgRdBWSys                     139.91                       # Average system read bandwidth in MiByte/s
system.mem_ctrl.avgWrBWSys                       9.74                       # Average system write bandwidth in MiByte/s
system.mem_ctrl.peakBW                       12800.00                       # Theoretical peak bandwidth in MiByte/s
system.mem_ctrl.busUtil                          9.19                       # Data bus utilization in percentage
system.mem_ctrl.busUtilRead                      9.14                       # Data bus utilization in percentage for reads
system.mem_ctrl.busUtilWrite                     0.05                       # Data bus utilization in percentage for writes
system.mem_ctrl.avgRdQLen                        1.00                       # Average read queue length when enqueuing
system.mem_ctrl.avgWrQLen                       26.66                       # Average write queue length when enqueuing
system.mem_ctrl.readRowHits                    142061                       # Number of row buffer hits during reads
system.mem_ctrl.writeRowHits                      730                       # Number of row buffer hits during writes
system.mem_ctrl.readRowHitRate                  90.38                       # Row buffer hit rate for reads
system.mem_ctrl.writeRowHitRate                 87.11                       # Row buffer hit rate for writes
system.mem_ctrl.avgGap                       49972.38                       # Average gap between requests
system.mem_ctrl.pageHitRate                     90.36                       # Row buffer hit rate, read and write combined
system.mem_ctrl_0.actEnergy                  28659960                       # Energy for activate commands per rank (pJ)
system.mem_ctrl_0.preEnergy                  15233130                       # Energy for precharge commands per rank (pJ)
system.mem_ctrl_0.readEnergy                225345540                       # Energy for read commands per rank (pJ)
system.mem_ctrl_0.writeEnergy                 1973160                       # Energy for write commands per rank (pJ)
system.mem_ctrl_0.refreshEnergy          567927360.000000                       # Energy for refresh commands per rank (pJ)
system.mem_ctrl_0.actBackEnergy             533875680                       # Energy for active background per rank (pJ)
system.mem_ctrl_0.preBackEnergy              15273120                       # Energy for precharge background per rank (pJ)
system.mem_ctrl_0.actPowerDownEnergy       2240058390                       # Energy for active power-down per rank (pJ)
system.mem_ctrl_0.prePowerDownEnergy        416367360                       # Energy for precharge power-down per rank (pJ)
system.mem_ctrl_0.selfRefreshEnergy         343928760                       # Energy for self refresh per rank (pJ)
system.mem_ctrl_0.totalEnergy              4388642460                       # Total energy per rank (pJ)
system.mem_ctrl_0.averagePower             510.510874                       # Core power per rank (mW)
system.mem_ctrl_0.totalIdleTime            6335566500                       # Total Idle time Per DRAM Rank
system.mem_ctrl_0.memoryStateTime::IDLE      10854000                       # Time in different power states
system.mem_ctrl_0.memoryStateTime::REF      240240000                       # Time in different power states
system.mem_ctrl_0.memoryStateTime::SREF    1389314750                       # Time in different power states
system.mem_ctrl_0.memoryStateTime::PRE_PDN   1084143500                       # Time in different power states
system.mem_ctrl_0.memoryStateTime::ACT      959254750                       # Time in different power states
system.mem_ctrl_0.memoryStateTime::ACT_PDN   4912763000                       # Time in different power states
system.mem_ctrl_1.actEnergy                  79889460                       # Energy for activate commands per rank (pJ)
system.mem_ctrl_1.preEnergy                  42447075                       # Energy for precharge commands per rank (pJ)
system.mem_ctrl_1.readEnergy                896941080                       # Energy for read commands per rank (pJ)
system.mem_ctrl_1.writeEnergy                 2255040                       # Energy for write commands per rank (pJ)
system.mem_ctrl_1.refreshEnergy          673030800.000000                       # Energy for refresh commands per rank (pJ)
system.mem_ctrl_1.actBackEnergy            1686981690                       # Energy for active background per rank (pJ)
system.mem_ctrl_1.preBackEnergy              24787200                       # Energy for precharge background per rank (pJ)
system.mem_ctrl_1.actPowerDownEnergy       1976270940                       # Energy for active power-down per rank (pJ)
system.mem_ctrl_1.prePowerDownEnergy        167736960                       # Energy for precharge power-down per rank (pJ)
system.mem_ctrl_1.selfRefreshEnergy          18687180                       # Energy for self refresh per rank (pJ)
system.mem_ctrl_1.totalEnergy              5569120485                       # Total energy per rank (pJ)
system.mem_ctrl_1.averagePower             647.830528                       # Core power per rank (mW)
system.mem_ctrl_1.totalIdleTime            4831101500                       # Total Idle time Per DRAM Rank
system.mem_ctrl_1.memoryStateTime::IDLE      19594250                       # Time in different power states
system.mem_ctrl_1.memoryStateTime::REF      284700000                       # Time in different power states
system.mem_ctrl_1.memoryStateTime::SREF      61551750                       # Time in different power states
system.mem_ctrl_1.memoryStateTime::PRE_PDN    436870000                       # Time in different power states
system.mem_ctrl_1.memoryStateTime::ACT     3461174250                       # Time in different power states
system.mem_ctrl_1.memoryStateTime::ACT_PDN   4332679750                       # Time in different power states
system.pwrStateResidencyTicks::UNDEFINED   8596570000                       # Cumulative time (in ticks) in various power states
system.checker.pwrStateResidencyTicks::UNDEFINED   8596570000                       # Cumulative time (in ticks) in various power states
system.cpu.dtb.walker.pwrStateResidencyTicks::UNDEFINED   8596570000                       # Cumulative time (in ticks) in various power states
system.cpu.dtb.rdAccesses                       27036                       # TLB accesses on read requests
system.cpu.dtb.wrAccesses                       13065                       # TLB accesses on write requests
system.cpu.dtb.rdMisses                            71                       # TLB misses on read requests
system.cpu.dtb.wrMisses                            17                       # TLB misses on write requests
system.cpu.apic_clk_domain.clock                 8000                       # Clock period in ticks
system.cpu.interrupts.pwrStateResidencyTicks::UNDEFINED   8596570000                       # Cumulative time (in ticks) in various power states
system.cpu.itb.walker.pwrStateResidencyTicks::UNDEFINED   8596570000                       # Cumulative time (in ticks) in various power states
system.cpu.itb.rdAccesses                           0                       # TLB accesses on read requests
system.cpu.itb.wrAccesses                      131924                       # TLB accesses on write requests
system.cpu.itb.rdMisses                             0                       # TLB misses on read requests
system.cpu.itb.wrMisses                            80                       # TLB misses on write requests
system.cpu.workload.numSyscalls                    32                       # Number of system calls
system.cpu.pwrStateResidencyTicks::ON      8596570000                       # Cumulative time (in ticks) in various power states
system.cpu.numCycles                         17193140                       # number of cpu cycles simulated
system.cpu.numWorkItemsStarted                      0                       # number of work items this cpu started
system.cpu.numWorkItemsCompleted                    0                       # number of work items this cpu completed
system.cpu.committedInsts                      100000                       # Number of instructions committed
system.cpu.committedOps                        185735                       # Number of ops (including micro ops) committed
system.cpu.num_int_alu_accesses                182494                       # Number of integer alu accesses
system.cpu.num_fp_alu_accesses                    808                       # Number of float alu accesses
system.cpu.num_vec_alu_accesses                     0                       # Number of vector alu accesses
system.cpu.num_func_calls                        1527                       # number of times a function call or return occured
system.cpu.num_conditional_control_insts        19878                       # number of instructions that are conditional controls
system.cpu.num_int_insts                       182494                       # number of integer instructions
system.cpu.num_fp_insts                           808                       # number of float instructions
system.cpu.num_vec_insts                            0                       # number of vector instructions
system.cpu.num_int_register_reads              373894                       # number of times the integer registers were read
system.cpu.num_int_register_writes             152332                       # number of times the integer registers were written
system.cpu.num_fp_register_reads                  686                       # number of times the floating registers were read
system.cpu.num_fp_register_writes                 388                       # number of times the floating registers were written
system.cpu.num_vec_register_reads                   0                       # number of times the vector registers were read
system.cpu.num_vec_register_writes                  0                       # number of times the vector registers were written
system.cpu.num_cc_register_reads               122692                       # number of times the CC registers were read
system.cpu.num_cc_register_writes               77383                       # number of times the CC registers were written
system.cpu.num_mem_refs                         40098                       # number of memory refs
system.cpu.num_load_insts                       27035                       # Number of load instructions
system.cpu.num_store_insts                      13063                       # Number of store instructions
system.cpu.num_idle_cycles                          0                       # Number of idle cycles
system.cpu.num_busy_cycles                   17193140                       # Number of busy cycles
system.cpu.not_idle_fraction                        1                       # Percentage of non-idle cycles
system.cpu.idle_fraction                            0                       # Percentage of idle cycles
system.cpu.Branches                             22197                       # Number of branches fetched
system.cpu.op_class::No_OpClass                  3121      1.68%      1.68% # Class of executed instruction
system.cpu.op_class::IntAlu                    140840     75.83%     77.51% # Class of executed instruction
system.cpu.op_class::IntMult                       17      0.01%     77.52% # Class of executed instruction
system.cpu.op_class::IntDiv                      1369      0.74%     78.26% # Class of executed instruction
system.cpu.op_class::FloatAdd                      50      0.03%     78.28% # Class of executed instruction
system.cpu.op_class::FloatCmp                       0      0.00%     78.28% # Class of executed instruction
system.cpu.op_class::FloatCvt                      96      0.05%     78.33% # Class of executed instruction
system.cpu.op_class::FloatMult                      0      0.00%     78.33% # Class of executed instruction
system.cpu.op_class::FloatMultAcc                   0      0.00%     78.33% # Class of executed instruction
system.cpu.op_class::FloatDiv                       0      0.00%     78.33% # Class of executed instruction
system.cpu.op_class::FloatMisc                      0      0.00%     78.33% # Class of executed instruction
system.cpu.op_class::FloatSqrt                      0      0.00%     78.33% # Class of executed instruction
system.cpu.op_class::SimdAdd                        0      0.00%     78.33% # Class of executed instruction
system.cpu.op_class::SimdAddAcc                     0      0.00%     78.33% # Class of executed instruction
system.cpu.op_class::SimdAlu                       42      0.02%     78.36% # Class of executed instruction
system.cpu.op_class::SimdCmp                        0      0.00%     78.36% # Class of executed instruction
system.cpu.op_class::SimdCvt                       44      0.02%     78.38% # Class of executed instruction
system.cpu.op_class::SimdMisc                      58      0.03%     78.41% # Class of executed instruction
system.cpu.op_class::SimdMult                       0      0.00%     78.41% # Class of executed instruction
system.cpu.op_class::SimdMultAcc                    0      0.00%     78.41% # Class of executed instruction
system.cpu.op_class::SimdShift                      0      0.00%     78.41% # Class of executed instruction
system.cpu.op_class::SimdShiftAcc                   0      0.00%     78.41% # Class of executed instruction
system.cpu.op_class::SimdSqrt                       0      0.00%     78.41% # Class of executed instruction
system.cpu.op_class::SimdFloatAdd                   0      0.00%     78.41% # Class of executed instruction
system.cpu.op_class::SimdFloatAlu                   0      0.00%     78.41% # Class of executed instruction
system.cpu.op_class::SimdFloatCmp                   0      0.00%     78.41% # Class of executed instruction
system.cpu.op_class::SimdFloatCvt                   0      0.00%     78.41% # Class of executed instruction
system.cpu.op_class::SimdFloatDiv                   0      0.00%     78.41% # Class of executed instruction
system.cpu.op_class::SimdFloatMisc                  0      0.00%     78.41% # Class of executed instruction
system.cpu.op_class::SimdFloatMult                  0      0.00%     78.41% # Class of executed instruction
system.cpu.op_class::SimdFloatMultAcc               0      0.00%     78.41% # Class of executed instruction
system.cpu.op_class::SimdFloatSqrt                  0      0.00%     78.41% # Class of executed instruction
system.cpu.op_class::SimdAes                        0      0.00%     78.41% # Class of executed instruction
system.cpu.op_class::SimdAesMix                     0      0.00%     78.41% # Class of executed instruction
system.cpu.op_class::SimdSha1Hash                   0      0.00%     78.41% # Class of executed instruction
system.cpu.op_class::SimdSha1Hash2                  0      0.00%     78.41% # Class of executed instruction
system.cpu.op_class::SimdSha256Hash                 0      0.00%     78.41% # Class of executed instruction
system.cpu.op_class::SimdSha256Hash2                0      0.00%     78.41% # Class of executed instruction
system.cpu.op_class::SimdShaSigma2                  0      0.00%     78.41% # Class of executed instruction
system.cpu.op_class::SimdShaSigma3                  0      0.00%     78.41% # Class of executed instruction
system.cpu.op_class::MemRead                    26809     14.43%     92.85% # Class of executed instruction
system.cpu.op_class::MemWrite                   12783      6.88%     99.73% # Class of executed instruction
system.cpu.op_class::FloatMemRead                 226      0.12%     99.85% # Class of executed instruction
system.cpu.op_class::FloatMemWrite                280      0.15%    100.00% # Class of executed instruction
system.cpu.op_class::IprAccess                      0      0.00%    100.00% # Class of executed instruction
system.cpu.op_class::InstPrefetch                   0      0.00%    100.00% # Class of executed instruction
system.cpu.op_class::total                     185735                       # Class of executed instruction
system.membus.snoop_filter.tot_requests             0                       # Total number of requests made to the snoop filter.
system.membus.snoop_filter.hit_single_requests            0                       # Number of requests hitting in the snoop filter with a single holder of the requested data.
system.membus.snoop_filter.hit_multi_requests            0                       # Number of requests hitting in the snoop filter with multiple (>1) holders of the requested data.
system.membus.snoop_filter.tot_snoops               0                       # Total number of snoops made to the snoop filter.
system.membus.snoop_filter.hit_single_snoops            0                       # Number of snoops hitting in the snoop filter with a single holder of the requested data.
system.membus.snoop_filter.hit_multi_snoops            0                       # Number of snoops hitting in the snoop filter with multiple (>1) holders of the requested data.
system.membus.pwrStateResidencyTicks::UNDEFINED   8596570000                       # Cumulative time (in ticks) in various power states
system.membus.trans_dist::ReadReq              158960                       # Transaction distribution
system.membus.trans_dist::ReadResp             158959                       # Transaction distribution
system.membus.trans_dist::WriteReq              13065                       # Transaction distribution
system.membus.trans_dist::WriteResp             13065                       # Transaction distribution
system.membus.pkt_count_system.checker-master::system.mem_ctrl.port        80202                       # Packet count per connected master and slave (bytes)
system.membus.pkt_count_system.checker-master::total        80202                       # Packet count per connected master and slave (bytes)
system.membus.pkt_count_system.cpu.icache_port::system.mem_ctrl.port       263847                       # Packet count per connected master and slave (bytes)
system.membus.pkt_count_system.cpu.icache_port::total       263847                       # Packet count per connected master and slave (bytes)
system.membus.pkt_count::total                 344049                       # Packet count per connected master and slave (bytes)
system.membus.pkt_size_system.checker-master::system.mem_ctrl.port       231082                       # Cumulative packet size per connected master and slave (bytes)
system.membus.pkt_size_system.checker-master::total       231082                       # Cumulative packet size per connected master and slave (bytes)
system.membus.pkt_size_system.cpu.icache_port::system.mem_ctrl.port      1055384                       # Cumulative packet size per connected master and slave (bytes)
system.membus.pkt_size_system.cpu.icache_port::total      1055384                       # Cumulative packet size per connected master and slave (bytes)
system.membus.pkt_size::total                 1286466                       # Cumulative packet size per connected master and slave (bytes)
system.membus.snoops                                0                       # Total snoops (count)
system.membus.snoopTraffic                          0                       # Total snoop traffic (bytes)
system.membus.snoop_fanout::samples            172025                       # Request fanout histogram
system.membus.snoop_fanout::mean                    0                       # Request fanout histogram
system.membus.snoop_fanout::stdev                   0                       # Request fanout histogram
system.membus.snoop_fanout::underflows              0      0.00%      0.00% # Request fanout histogram
system.membus.snoop_fanout::0                  172025    100.00%    100.00% # Request fanout histogram
system.membus.snoop_fanout::1                       0      0.00%    100.00% # Request fanout histogram
system.membus.snoop_fanout::overflows               0      0.00%    100.00% # Request fanout histogram
system.membus.snoop_fanout::min_value               0                       # Request fanout histogram
system.membus.snoop_fanout::max_value               0                       # Request fanout histogram
system.membus.snoop_fanout::total              172025                       # Request fanout histogram
system.membus.reqLayer2.occupancy            92545000                       # Layer occupancy (ticks)
system.membus.reqLayer2.utilization               1.1                       # Layer utilization (%)
system.membus.respLayer0.occupancy           38943500                       # Layer occupancy (ticks)
system.membus.respLayer0.utilization              0.5                       # Layer utilization (%)
system.membus.respLayer1.occupancy          162825250                       # Layer occupancy (ticks)
system.membus.respLayer1.utilization              1.9                       # Layer utilization (%)

---------- End Simulation Statistics   ----------
