
---------- Begin Simulation Statistics ----------
sim_seconds                                  0.853196                       # Number of seconds simulated
sim_ticks                                853195782500                       # Number of ticks simulated
final_tick                               853195782500                       # Number of ticks from beginning of simulation (restored from checkpoints and never reset)
sim_freq                                 1000000000000                       # Frequency of simulated ticks
host_inst_rate                                  13944                       # Simulator instruction rate (inst/s)
host_op_rate                                    24943                       # Simulator op (including micro ops) rate (op/s)
host_tick_rate                             1189732098                       # Simulator tick rate (ticks/s)
host_mem_usage                                3564412                       # Number of bytes of host memory used
host_seconds                                   717.13                       # Real time elapsed on the host
sim_insts                                    10000001                       # Number of instructions simulated
sim_ops                                      17887310                       # Number of ops (including micro ops) simulated
system.clk_domain.voltage_domain.voltage            1                       # Voltage in Volts
system.clk_domain.clock                           500                       # Clock period in ticks
system.mem_ctrl.pwrStateResidencyTicks::UNDEFINED 853195782500                       # Cumulative time (in ticks) in various power states
system.mem_ctrl.bytes_read::.cpu.inst       106971992                       # Number of bytes read from this memory
system.mem_ctrl.bytes_read::.cpu.data        12563628                       # Number of bytes read from this memory
system.mem_ctrl.bytes_read::total           119535620                       # Number of bytes read from this memory
system.mem_ctrl.bytes_inst_read::.cpu.inst    106971992                       # Number of instructions bytes read from this memory
system.mem_ctrl.bytes_inst_read::total      106971992                       # Number of instructions bytes read from this memory
system.mem_ctrl.bytes_written::.cpu.data      9543930                       # Number of bytes written to this memory
system.mem_ctrl.bytes_written::total          9543930                       # Number of bytes written to this memory
system.mem_ctrl.num_reads::.cpu.inst         13371499                       # Number of read requests responded to by this memory
system.mem_ctrl.num_reads::.cpu.data          2193546                       # Number of read requests responded to by this memory
system.mem_ctrl.num_reads::total             15565045                       # Number of read requests responded to by this memory
system.mem_ctrl.num_writes::.cpu.data         1606288                       # Number of write requests responded to by this memory
system.mem_ctrl.num_writes::total             1606288                       # Number of write requests responded to by this memory
system.mem_ctrl.bw_read::.cpu.inst          125378013                       # Total read bandwidth from this memory (bytes/s)
system.mem_ctrl.bw_read::.cpu.data           14725375                       # Total read bandwidth from this memory (bytes/s)
system.mem_ctrl.bw_read::total              140103388                       # Total read bandwidth from this memory (bytes/s)
system.mem_ctrl.bw_inst_read::.cpu.inst     125378013                       # Instruction read bandwidth from this memory (bytes/s)
system.mem_ctrl.bw_inst_read::total         125378013                       # Instruction read bandwidth from this memory (bytes/s)
system.mem_ctrl.bw_write::.cpu.data          11186096                       # Write bandwidth from this memory (bytes/s)
system.mem_ctrl.bw_write::total              11186096                       # Write bandwidth from this memory (bytes/s)
system.mem_ctrl.bw_total::.cpu.inst         125378013                       # Total bandwidth to/from this memory (bytes/s)
system.mem_ctrl.bw_total::.cpu.data          25911471                       # Total bandwidth to/from this memory (bytes/s)
system.mem_ctrl.bw_total::total             151289484                       # Total bandwidth to/from this memory (bytes/s)
system.mem_ctrl.avgPriority_.cpu.inst::samples  13371500.00                       # Average QoS priority value for accepted requests
system.mem_ctrl.avgPriority_.cpu.data::samples   2014926.00                       # Average QoS priority value for accepted requests
system.mem_ctrl.priorityMinLatency       0.000000018750                       # per QoS priority minimum request to response latency (s)
system.mem_ctrl.priorityMaxLatency       0.039761652500                       # per QoS priority maximum request to response latency (s)
system.mem_ctrl.numReadWriteTurnArounds          7190                       # Number of turnarounds from READ to WRITE
system.mem_ctrl.numWriteReadTurnArounds          7190                       # Number of turnarounds from WRITE to READ
system.mem_ctrl.numStayReadState             32355735                       # Number of times bus staying in READ state
system.mem_ctrl.numStayWriteState              109826                       # Number of times bus staying in WRITE state
system.mem_ctrl.readReqs                     15565046                       # Number of read requests accepted
system.mem_ctrl.writeReqs                     1606288                       # Number of write requests accepted
system.mem_ctrl.readBursts                   15565046                       # Number of DRAM read bursts, including those serviced by the write queue
system.mem_ctrl.writeBursts                   1606288                       # Number of DRAM write bursts, including those merged in the write queue
system.mem_ctrl.bytesReadDRAM               977366336                       # Total number of bytes read from DRAM
system.mem_ctrl.bytesReadWrQ                 18796608                       # Total number of bytes read from write queue
system.mem_ctrl.bytesWritten                  7363072                       # Total number of bytes written to DRAM
system.mem_ctrl.bytesReadSys                119535628                       # Total read bytes from the system interface side
system.mem_ctrl.bytesWrittenSys               9543930                       # Total written bytes from the system interface side
system.mem_ctrl.servicedByWrQ                  293697                       # Number of DRAM read bursts serviced by the write queue
system.mem_ctrl.mergedWrBursts                1491211                       # Number of DRAM write bursts merged with an existing one
system.mem_ctrl.neitherReadNorWriteReqs             0                       # Number of requests that are neither read nor write
system.mem_ctrl.perBankRdBursts::0            3290853                       # Per bank write bursts
system.mem_ctrl.perBankRdBursts::1            1219036                       # Per bank write bursts
system.mem_ctrl.perBankRdBursts::2            1465272                       # Per bank write bursts
system.mem_ctrl.perBankRdBursts::3            3077226                       # Per bank write bursts
system.mem_ctrl.perBankRdBursts::4             196241                       # Per bank write bursts
system.mem_ctrl.perBankRdBursts::5             818874                       # Per bank write bursts
system.mem_ctrl.perBankRdBursts::6             579227                       # Per bank write bursts
system.mem_ctrl.perBankRdBursts::7             928095                       # Per bank write bursts
system.mem_ctrl.perBankRdBursts::8             284630                       # Per bank write bursts
system.mem_ctrl.perBankRdBursts::9              90039                       # Per bank write bursts
system.mem_ctrl.perBankRdBursts::10            701801                       # Per bank write bursts
system.mem_ctrl.perBankRdBursts::11           1026366                       # Per bank write bursts
system.mem_ctrl.perBankRdBursts::12            184766                       # Per bank write bursts
system.mem_ctrl.perBankRdBursts::13            731133                       # Per bank write bursts
system.mem_ctrl.perBankRdBursts::14            434182                       # Per bank write bursts
system.mem_ctrl.perBankRdBursts::15            243608                       # Per bank write bursts
system.mem_ctrl.perBankWrBursts::0               5466                       # Per bank write bursts
system.mem_ctrl.perBankWrBursts::1               3941                       # Per bank write bursts
system.mem_ctrl.perBankWrBursts::2               2332                       # Per bank write bursts
system.mem_ctrl.perBankWrBursts::3               7750                       # Per bank write bursts
system.mem_ctrl.perBankWrBursts::4               3251                       # Per bank write bursts
system.mem_ctrl.perBankWrBursts::5               2651                       # Per bank write bursts
system.mem_ctrl.perBankWrBursts::6               2575                       # Per bank write bursts
system.mem_ctrl.perBankWrBursts::7               2772                       # Per bank write bursts
system.mem_ctrl.perBankWrBursts::8               3448                       # Per bank write bursts
system.mem_ctrl.perBankWrBursts::9               3290                       # Per bank write bursts
system.mem_ctrl.perBankWrBursts::10             11264                       # Per bank write bursts
system.mem_ctrl.perBankWrBursts::11              2492                       # Per bank write bursts
system.mem_ctrl.perBankWrBursts::12              4538                       # Per bank write bursts
system.mem_ctrl.perBankWrBursts::13             29571                       # Per bank write bursts
system.mem_ctrl.perBankWrBursts::14             25160                       # Per bank write bursts
system.mem_ctrl.perBankWrBursts::15              4547                       # Per bank write bursts
system.mem_ctrl.numRdRetry                          0                       # Number of times read queue was full causing retry
system.mem_ctrl.numWrRetry                          0                       # Number of times write queue was full causing retry
system.mem_ctrl.totGap                   853195711000                       # Total gap between requests
system.mem_ctrl.readPktSize::0                 144895                       # Read request sizes (log2)
system.mem_ctrl.readPktSize::1                 119548                       # Read request sizes (log2)
system.mem_ctrl.readPktSize::2                 813293                       # Read request sizes (log2)
system.mem_ctrl.readPktSize::3               14487310                       # Read request sizes (log2)
system.mem_ctrl.readPktSize::4                      0                       # Read request sizes (log2)
system.mem_ctrl.readPktSize::5                      0                       # Read request sizes (log2)
system.mem_ctrl.readPktSize::6                      0                       # Read request sizes (log2)
system.mem_ctrl.writePktSize::0                106881                       # Write request sizes (log2)
system.mem_ctrl.writePktSize::1                 96662                       # Write request sizes (log2)
system.mem_ctrl.writePktSize::2                494552                       # Write request sizes (log2)
system.mem_ctrl.writePktSize::3                908193                       # Write request sizes (log2)
system.mem_ctrl.writePktSize::4                     0                       # Write request sizes (log2)
system.mem_ctrl.writePktSize::5                     0                       # Write request sizes (log2)
system.mem_ctrl.writePktSize::6                     0                       # Write request sizes (log2)
system.mem_ctrl.rdQLenPdf::0                 15270342                       # What read queue length does an incoming req see
system.mem_ctrl.rdQLenPdf::1                     1007                       # What read queue length does an incoming req see
system.mem_ctrl.rdQLenPdf::2                        0                       # What read queue length does an incoming req see
system.mem_ctrl.rdQLenPdf::3                        0                       # What read queue length does an incoming req see
system.mem_ctrl.rdQLenPdf::4                        0                       # What read queue length does an incoming req see
system.mem_ctrl.rdQLenPdf::5                        0                       # What read queue length does an incoming req see
system.mem_ctrl.rdQLenPdf::6                        0                       # What read queue length does an incoming req see
system.mem_ctrl.rdQLenPdf::7                        0                       # What read queue length does an incoming req see
system.mem_ctrl.rdQLenPdf::8                        0                       # What read queue length does an incoming req see
system.mem_ctrl.rdQLenPdf::9                        0                       # What read queue length does an incoming req see
system.mem_ctrl.rdQLenPdf::10                       0                       # What read queue length does an incoming req see
system.mem_ctrl.rdQLenPdf::11                       0                       # What read queue length does an incoming req see
system.mem_ctrl.rdQLenPdf::12                       0                       # What read queue length does an incoming req see
system.mem_ctrl.rdQLenPdf::13                       0                       # What read queue length does an incoming req see
system.mem_ctrl.rdQLenPdf::14                       0                       # What read queue length does an incoming req see
system.mem_ctrl.rdQLenPdf::15                       0                       # What read queue length does an incoming req see
system.mem_ctrl.rdQLenPdf::16                       0                       # What read queue length does an incoming req see
system.mem_ctrl.rdQLenPdf::17                       0                       # What read queue length does an incoming req see
system.mem_ctrl.rdQLenPdf::18                       0                       # What read queue length does an incoming req see
system.mem_ctrl.rdQLenPdf::19                       0                       # What read queue length does an incoming req see
system.mem_ctrl.rdQLenPdf::20                       0                       # What read queue length does an incoming req see
system.mem_ctrl.rdQLenPdf::21                       0                       # What read queue length does an incoming req see
system.mem_ctrl.rdQLenPdf::22                       0                       # What read queue length does an incoming req see
system.mem_ctrl.rdQLenPdf::23                       0                       # What read queue length does an incoming req see
system.mem_ctrl.rdQLenPdf::24                       0                       # What read queue length does an incoming req see
system.mem_ctrl.rdQLenPdf::25                       0                       # What read queue length does an incoming req see
system.mem_ctrl.rdQLenPdf::26                       0                       # What read queue length does an incoming req see
system.mem_ctrl.rdQLenPdf::27                       0                       # What read queue length does an incoming req see
system.mem_ctrl.rdQLenPdf::28                       0                       # What read queue length does an incoming req see
system.mem_ctrl.rdQLenPdf::29                       0                       # What read queue length does an incoming req see
system.mem_ctrl.rdQLenPdf::30                       0                       # What read queue length does an incoming req see
system.mem_ctrl.rdQLenPdf::31                       0                       # What read queue length does an incoming req see
system.mem_ctrl.wrQLenPdf::0                        1                       # What write queue length does an incoming req see
system.mem_ctrl.wrQLenPdf::1                        1                       # What write queue length does an incoming req see
system.mem_ctrl.wrQLenPdf::2                        1                       # What write queue length does an incoming req see
system.mem_ctrl.wrQLenPdf::3                        1                       # What write queue length does an incoming req see
system.mem_ctrl.wrQLenPdf::4                        1                       # What write queue length does an incoming req see
system.mem_ctrl.wrQLenPdf::5                        1                       # What write queue length does an incoming req see
system.mem_ctrl.wrQLenPdf::6                        1                       # What write queue length does an incoming req see
system.mem_ctrl.wrQLenPdf::7                        1                       # What write queue length does an incoming req see
system.mem_ctrl.wrQLenPdf::8                        1                       # What write queue length does an incoming req see
system.mem_ctrl.wrQLenPdf::9                        1                       # What write queue length does an incoming req see
system.mem_ctrl.wrQLenPdf::10                       1                       # What write queue length does an incoming req see
system.mem_ctrl.wrQLenPdf::11                       1                       # What write queue length does an incoming req see
system.mem_ctrl.wrQLenPdf::12                       1                       # What write queue length does an incoming req see
system.mem_ctrl.wrQLenPdf::13                       1                       # What write queue length does an incoming req see
system.mem_ctrl.wrQLenPdf::14                       1                       # What write queue length does an incoming req see
system.mem_ctrl.wrQLenPdf::15                       5                       # What write queue length does an incoming req see
system.mem_ctrl.wrQLenPdf::16                       5                       # What write queue length does an incoming req see
system.mem_ctrl.wrQLenPdf::17                    7147                       # What write queue length does an incoming req see
system.mem_ctrl.wrQLenPdf::18                    7191                       # What write queue length does an incoming req see
system.mem_ctrl.wrQLenPdf::19                    7191                       # What write queue length does an incoming req see
system.mem_ctrl.wrQLenPdf::20                    7191                       # What write queue length does an incoming req see
system.mem_ctrl.wrQLenPdf::21                    7191                       # What write queue length does an incoming req see
system.mem_ctrl.wrQLenPdf::22                    7191                       # What write queue length does an incoming req see
system.mem_ctrl.wrQLenPdf::23                    7191                       # What write queue length does an incoming req see
system.mem_ctrl.wrQLenPdf::24                    7194                       # What write queue length does an incoming req see
system.mem_ctrl.wrQLenPdf::25                    7216                       # What write queue length does an incoming req see
system.mem_ctrl.wrQLenPdf::26                    7198                       # What write queue length does an incoming req see
system.mem_ctrl.wrQLenPdf::27                    7193                       # What write queue length does an incoming req see
system.mem_ctrl.wrQLenPdf::28                    7193                       # What write queue length does an incoming req see
system.mem_ctrl.wrQLenPdf::29                    7193                       # What write queue length does an incoming req see
system.mem_ctrl.wrQLenPdf::30                    7190                       # What write queue length does an incoming req see
system.mem_ctrl.wrQLenPdf::31                    7192                       # What write queue length does an incoming req see
system.mem_ctrl.wrQLenPdf::32                    7190                       # What write queue length does an incoming req see
system.mem_ctrl.wrQLenPdf::33                       0                       # What write queue length does an incoming req see
system.mem_ctrl.wrQLenPdf::34                       0                       # What write queue length does an incoming req see
system.mem_ctrl.wrQLenPdf::35                       0                       # What write queue length does an incoming req see
system.mem_ctrl.wrQLenPdf::36                       0                       # What write queue length does an incoming req see
system.mem_ctrl.wrQLenPdf::37                       0                       # What write queue length does an incoming req see
system.mem_ctrl.wrQLenPdf::38                       0                       # What write queue length does an incoming req see
system.mem_ctrl.wrQLenPdf::39                       0                       # What write queue length does an incoming req see
system.mem_ctrl.wrQLenPdf::40                       0                       # What write queue length does an incoming req see
system.mem_ctrl.wrQLenPdf::41                       0                       # What write queue length does an incoming req see
system.mem_ctrl.wrQLenPdf::42                       0                       # What write queue length does an incoming req see
system.mem_ctrl.wrQLenPdf::43                       0                       # What write queue length does an incoming req see
system.mem_ctrl.wrQLenPdf::44                       0                       # What write queue length does an incoming req see
system.mem_ctrl.wrQLenPdf::45                       0                       # What write queue length does an incoming req see
system.mem_ctrl.wrQLenPdf::46                       0                       # What write queue length does an incoming req see
system.mem_ctrl.wrQLenPdf::47                       0                       # What write queue length does an incoming req see
system.mem_ctrl.wrQLenPdf::48                       0                       # What write queue length does an incoming req see
system.mem_ctrl.wrQLenPdf::49                       0                       # What write queue length does an incoming req see
system.mem_ctrl.wrQLenPdf::50                       0                       # What write queue length does an incoming req see
system.mem_ctrl.wrQLenPdf::51                       0                       # What write queue length does an incoming req see
system.mem_ctrl.wrQLenPdf::52                       0                       # What write queue length does an incoming req see
system.mem_ctrl.wrQLenPdf::53                       0                       # What write queue length does an incoming req see
system.mem_ctrl.wrQLenPdf::54                       0                       # What write queue length does an incoming req see
system.mem_ctrl.wrQLenPdf::55                       0                       # What write queue length does an incoming req see
system.mem_ctrl.wrQLenPdf::56                       0                       # What write queue length does an incoming req see
system.mem_ctrl.wrQLenPdf::57                       0                       # What write queue length does an incoming req see
system.mem_ctrl.wrQLenPdf::58                       0                       # What write queue length does an incoming req see
system.mem_ctrl.wrQLenPdf::59                       0                       # What write queue length does an incoming req see
system.mem_ctrl.wrQLenPdf::60                       0                       # What write queue length does an incoming req see
system.mem_ctrl.wrQLenPdf::61                       0                       # What write queue length does an incoming req see
system.mem_ctrl.wrQLenPdf::62                       0                       # What write queue length does an incoming req see
system.mem_ctrl.wrQLenPdf::63                       0                       # What write queue length does an incoming req see
system.mem_ctrl.bytesPerActivate::samples      1742933                       # Bytes accessed per row activation
system.mem_ctrl.bytesPerActivate::mean     564.983572                       # Bytes accessed per row activation
system.mem_ctrl.bytesPerActivate::gmean    346.303697                       # Bytes accessed per row activation
system.mem_ctrl.bytesPerActivate::stdev    420.838071                       # Bytes accessed per row activation
system.mem_ctrl.bytesPerActivate::0-127        405754     23.28%     23.28% # Bytes accessed per row activation
system.mem_ctrl.bytesPerActivate::128-255       225535     12.94%     36.22% # Bytes accessed per row activation
system.mem_ctrl.bytesPerActivate::256-383       124003      7.11%     43.33% # Bytes accessed per row activation
system.mem_ctrl.bytesPerActivate::384-511        93739      5.38%     48.71% # Bytes accessed per row activation
system.mem_ctrl.bytesPerActivate::512-639        68593      3.94%     52.65% # Bytes accessed per row activation
system.mem_ctrl.bytesPerActivate::640-767        54646      3.14%     55.78% # Bytes accessed per row activation
system.mem_ctrl.bytesPerActivate::768-895        35576      2.04%     57.82% # Bytes accessed per row activation
system.mem_ctrl.bytesPerActivate::896-1023        30949      1.78%     59.60% # Bytes accessed per row activation
system.mem_ctrl.bytesPerActivate::1024-1151       704138     40.40%    100.00% # Bytes accessed per row activation
system.mem_ctrl.bytesPerActivate::total       1742933                       # Bytes accessed per row activation
system.mem_ctrl.rdPerTurnAround::samples         7190                       # Reads before turning the bus around for writes
system.mem_ctrl.rdPerTurnAround::mean     2123.704312                       # Reads before turning the bus around for writes
system.mem_ctrl.rdPerTurnAround::stdev    3561.023943                       # Reads before turning the bus around for writes
system.mem_ctrl.rdPerTurnAround::0-8191          6909     96.09%     96.09% # Reads before turning the bus around for writes
system.mem_ctrl.rdPerTurnAround::8192-16383          199      2.77%     98.86% # Reads before turning the bus around for writes
system.mem_ctrl.rdPerTurnAround::16384-24575           75      1.04%     99.90% # Reads before turning the bus around for writes
system.mem_ctrl.rdPerTurnAround::24576-32767            1      0.01%     99.92% # Reads before turning the bus around for writes
system.mem_ctrl.rdPerTurnAround::32768-40959            1      0.01%     99.93% # Reads before turning the bus around for writes
system.mem_ctrl.rdPerTurnAround::40960-49151            1      0.01%     99.94% # Reads before turning the bus around for writes
system.mem_ctrl.rdPerTurnAround::57344-65535            1      0.01%     99.96% # Reads before turning the bus around for writes
system.mem_ctrl.rdPerTurnAround::65536-73727            1      0.01%     99.97% # Reads before turning the bus around for writes
system.mem_ctrl.rdPerTurnAround::81920-90111            1      0.01%     99.99% # Reads before turning the bus around for writes
system.mem_ctrl.rdPerTurnAround::139264-147455            1      0.01%    100.00% # Reads before turning the bus around for writes
system.mem_ctrl.rdPerTurnAround::total           7190                       # Reads before turning the bus around for writes
system.mem_ctrl.wrPerTurnAround::samples         7190                       # Writes before turning the bus around for reads
system.mem_ctrl.wrPerTurnAround::mean       16.001113                       # Writes before turning the bus around for reads
system.mem_ctrl.wrPerTurnAround::gmean      16.001048                       # Writes before turning the bus around for reads
system.mem_ctrl.wrPerTurnAround::stdev       0.047163                       # Writes before turning the bus around for reads
system.mem_ctrl.wrPerTurnAround::16              7186     99.94%     99.94% # Writes before turning the bus around for reads
system.mem_ctrl.wrPerTurnAround::18                 4      0.06%    100.00% # Writes before turning the bus around for reads
system.mem_ctrl.wrPerTurnAround::total           7190                       # Writes before turning the bus around for reads
system.mem_ctrl.masterReadBytes::.cpu.inst    106972000                       # Per-master bytes read from memory
system.mem_ctrl.masterReadBytes::.cpu.data     10788256                       # Per-master bytes read from memory
system.mem_ctrl.masterWriteBytes::.cpu.data       691654                       # Per-master bytes write to memory
system.mem_ctrl.masterReadRate::.cpu.inst 125378022.482196211815                       # Per-master bytes read from memory rate (Bytes/sec)
system.mem_ctrl.masterReadRate::.cpu.data 12644525.701227314770                       # Per-master bytes read from memory rate (Bytes/sec)
system.mem_ctrl.masterWriteRate::.cpu.data 810662.703902899288                       # Per-master bytes write to memory rate (Bytes/sec)
system.mem_ctrl.masterReadAccesses::.cpu.inst     13371500                       # Per-master read serviced memory accesses
system.mem_ctrl.masterReadAccesses::.cpu.data      2193546                       # Per-master read serviced memory accesses
system.mem_ctrl.masterWriteAccesses::.cpu.data      1606288                       # Per-master write serviced memory accesses
system.mem_ctrl.masterReadTotalLat::.cpu.inst 370887657500                       # Per-master read total memory access latency
system.mem_ctrl.masterReadTotalLat::.cpu.data  67826354500                       # Per-master read total memory access latency
system.mem_ctrl.masterWriteTotalLat::.cpu.data 22121657368500                       # Per-master write total memory access latency
system.mem_ctrl.masterReadAvgLat::.cpu.inst     27737.18                       # Per-master read average memory access latency
system.mem_ctrl.masterReadAvgLat::.cpu.data     30920.87                       # Per-master read average memory access latency
system.mem_ctrl.masterWriteAvgLat::.cpu.data  13771912.24                       # Per-master write average memory access latency
system.mem_ctrl.totQLat                  152376218250                       # Total ticks spent queuing
system.mem_ctrl.totMemAccLat             438714012000                       # Total ticks spent from burst creation until serviced by the DRAM
system.mem_ctrl.totBusLat                 76356745000                       # Total ticks spent in databus transfers
system.mem_ctrl.avgQLat                       9977.91                       # Average queueing delay per DRAM burst
system.mem_ctrl.avgBusLat                     5000.00                       # Average bus latency per DRAM burst
system.mem_ctrl.avgMemAccLat                 28727.91                       # Average memory access latency per DRAM burst
system.mem_ctrl.avgRdBW                       1145.54                       # Average DRAM read bandwidth in MiByte/s
system.mem_ctrl.avgWrBW                          8.63                       # Average achieved write bandwidth in MiByte/s
system.mem_ctrl.avgRdBWSys                     140.10                       # Average system read bandwidth in MiByte/s
system.mem_ctrl.avgWrBWSys                      11.19                       # Average system write bandwidth in MiByte/s
system.mem_ctrl.peakBW                       12800.00                       # Theoretical peak bandwidth in MiByte/s
system.mem_ctrl.busUtil                          9.02                       # Data bus utilization in percentage
system.mem_ctrl.busUtilRead                      8.95                       # Data bus utilization in percentage for reads
system.mem_ctrl.busUtilWrite                     0.07                       # Data bus utilization in percentage for writes
system.mem_ctrl.avgRdQLen                        1.00                       # Average read queue length when enqueuing
system.mem_ctrl.avgWrQLen                       26.30                       # Average write queue length when enqueuing
system.mem_ctrl.readRowHits                  13543719                       # Number of row buffer hits during reads
system.mem_ctrl.writeRowHits                    99741                       # Number of row buffer hits during writes
system.mem_ctrl.readRowHitRate                  88.69                       # Row buffer hit rate for reads
system.mem_ctrl.writeRowHitRate                 86.67                       # Row buffer hit rate for writes
system.mem_ctrl.avgGap                       49687.21                       # Average gap between requests
system.mem_ctrl.pageHitRate                     88.67                       # Row buffer hit rate, read and write combined
system.mem_ctrl_0.actEnergy                7947184140                       # Energy for activate commands per rank (pJ)
system.mem_ctrl_0.preEnergy                4224017160                       # Energy for precharge commands per rank (pJ)
system.mem_ctrl_0.readEnergy              82644236220                       # Energy for read commands per rank (pJ)
system.mem_ctrl_0.writeEnergy               160452360                       # Energy for write commands per rank (pJ)
system.mem_ctrl_0.refreshEnergy          67125449040.000008                       # Energy for refresh commands per rank (pJ)
system.mem_ctrl_0.actBackEnergy          155185097490                       # Energy for active background per rank (pJ)
system.mem_ctrl_0.preBackEnergy            3201420960                       # Energy for precharge background per rank (pJ)
system.mem_ctrl_0.actPowerDownEnergy     215238480900                       # Energy for active power-down per rank (pJ)
system.mem_ctrl_0.prePowerDownEnergy      11450939520                       # Energy for precharge power-down per rank (pJ)
system.mem_ctrl_0.selfRefreshEnergy        1043783760                       # Energy for self refresh per rank (pJ)
system.mem_ctrl_0.totalEnergy            548245883490                       # Total energy per rank (pJ)
system.mem_ctrl_0.averagePower             642.579224                       # Core power per rank (mW)
system.mem_ctrl_0.totalIdleTime          504478161500                       # Total Idle time Per DRAM Rank
system.mem_ctrl_0.memoryStateTime::IDLE    1814665000                       # Time in different power states
system.mem_ctrl_0.memoryStateTime::REF    28394860000                       # Time in different power states
system.mem_ctrl_0.memoryStateTime::SREF    2651220500                       # Time in different power states
system.mem_ctrl_0.memoryStateTime::PRE_PDN  29820853750                       # Time in different power states
system.mem_ctrl_0.memoryStateTime::ACT   318508096000                       # Time in different power states
system.mem_ctrl_0.memoryStateTime::ACT_PDN 472006087250                       # Time in different power states
system.mem_ctrl_1.actEnergy                4497386040                       # Energy for activate commands per rank (pJ)
system.mem_ctrl_1.preEnergy                2390413575                       # Energy for precharge commands per rank (pJ)
system.mem_ctrl_1.readEnergy              26393188500                       # Energy for read commands per rank (pJ)
system.mem_ctrl_1.writeEnergy               440098200                       # Energy for write commands per rank (pJ)
system.mem_ctrl_1.refreshEnergy          66701347440.000008                       # Energy for refresh commands per rank (pJ)
system.mem_ctrl_1.actBackEnergy           61797644400                       # Energy for active background per rank (pJ)
system.mem_ctrl_1.preBackEnergy            1857481440                       # Energy for precharge background per rank (pJ)
system.mem_ctrl_1.actPowerDownEnergy     297311786250                       # Energy for active power-down per rank (pJ)
system.mem_ctrl_1.prePowerDownEnergy      20355466080                       # Energy for precharge power-down per rank (pJ)
system.mem_ctrl_1.selfRefreshEnergy        2684650260                       # Energy for self refresh per rank (pJ)
system.mem_ctrl_1.totalEnergy            484433739915                       # Total energy per rank (pJ)
system.mem_ctrl_1.averagePower             567.787312                       # Core power per rank (mW)
system.mem_ctrl_1.totalIdleTime          712823172000                       # Total Idle time Per DRAM Rank
system.mem_ctrl_1.memoryStateTime::IDLE    1138120750                       # Time in different power states
system.mem_ctrl_1.memoryStateTime::REF    28215460000                       # Time in different power states
system.mem_ctrl_1.memoryStateTime::SREF    7819443500                       # Time in different power states
system.mem_ctrl_1.memoryStateTime::PRE_PDN  53006579750                       # Time in different power states
system.mem_ctrl_1.memoryStateTime::ACT   111018954500                       # Time in different power states
system.mem_ctrl_1.memoryStateTime::ACT_PDN 651997224000                       # Time in different power states
system.pwrStateResidencyTicks::UNDEFINED 853195782500                       # Cumulative time (in ticks) in various power states
system.checker.pwrStateResidencyTicks::UNDEFINED 853195782500                       # Cumulative time (in ticks) in various power states
system.cpu.dtb.walker.pwrStateResidencyTicks::UNDEFINED 853195782500                       # Cumulative time (in ticks) in various power states
system.cpu.dtb.rdAccesses                     2193546                       # TLB accesses on read requests
system.cpu.dtb.wrAccesses                     1606288                       # TLB accesses on write requests
system.cpu.dtb.rdMisses                           557                       # TLB misses on read requests
system.cpu.dtb.wrMisses                          3193                       # TLB misses on write requests
system.cpu.apic_clk_domain.clock                 8000                       # Clock period in ticks
system.cpu.interrupts.pwrStateResidencyTicks::UNDEFINED 853195782500                       # Cumulative time (in ticks) in various power states
system.cpu.itb.walker.pwrStateResidencyTicks::UNDEFINED 853195782500                       # Cumulative time (in ticks) in various power states
system.cpu.itb.rdAccesses                           0                       # TLB accesses on read requests
system.cpu.itb.wrAccesses                    13371500                       # TLB accesses on write requests
system.cpu.itb.rdMisses                             0                       # TLB misses on read requests
system.cpu.itb.wrMisses                           171                       # TLB misses on write requests
system.cpu.workload.numSyscalls                   135                       # Number of system calls
system.cpu.pwrStateResidencyTicks::ON    853195782500                       # Cumulative time (in ticks) in various power states
system.cpu.numCycles                       1706391565                       # number of cpu cycles simulated
system.cpu.numWorkItemsStarted                      0                       # number of work items this cpu started
system.cpu.numWorkItemsCompleted                    0                       # number of work items this cpu completed
system.cpu.committedInsts                    10000001                       # Number of instructions committed
system.cpu.committedOps                      17887310                       # Number of ops (including micro ops) committed
system.cpu.num_int_alu_accesses              17583257                       # Number of integer alu accesses
system.cpu.num_fp_alu_accesses                 447274                       # Number of float alu accesses
system.cpu.num_vec_alu_accesses                     0                       # Number of vector alu accesses
system.cpu.num_func_calls                      207617                       # number of times a function call or return occured
system.cpu.num_conditional_control_insts      1435930                       # number of instructions that are conditional controls
system.cpu.num_int_insts                     17583257                       # number of integer instructions
system.cpu.num_fp_insts                        447274                       # number of float instructions
system.cpu.num_vec_insts                            0                       # number of vector instructions
system.cpu.num_int_register_reads            35527836                       # number of times the integer registers were read
system.cpu.num_int_register_writes           14481496                       # number of times the integer registers were written
system.cpu.num_fp_register_reads               569513                       # number of times the floating registers were read
system.cpu.num_fp_register_writes              195211                       # number of times the floating registers were written
system.cpu.num_vec_register_reads                   0                       # number of times the vector registers were read
system.cpu.num_vec_register_writes                  0                       # number of times the vector registers were written
system.cpu.num_cc_register_reads             10955220                       # number of times the CC registers were read
system.cpu.num_cc_register_writes             7405452                       # number of times the CC registers were written
system.cpu.num_mem_refs                       3795589                       # number of memory refs
system.cpu.num_load_insts                     2191522                       # Number of load instructions
system.cpu.num_store_insts                    1604067                       # Number of store instructions
system.cpu.num_idle_cycles                          0                       # Number of idle cycles
system.cpu.num_busy_cycles                 1706391565                       # Number of busy cycles
system.cpu.not_idle_fraction                        1                       # Percentage of non-idle cycles
system.cpu.idle_fraction                            0                       # Percentage of idle cycles
system.cpu.Branches                           1768921                       # Number of branches fetched
system.cpu.op_class::No_OpClass                163074      0.91%      0.91% # Class of executed instruction
system.cpu.op_class::IntAlu                  13671066     76.43%     77.34% # Class of executed instruction
system.cpu.op_class::IntMult                    47348      0.26%     77.61% # Class of executed instruction
system.cpu.op_class::IntDiv                     74368      0.42%     78.02% # Class of executed instruction
system.cpu.op_class::FloatAdd                    7160      0.04%     78.06% # Class of executed instruction
system.cpu.op_class::FloatCmp                       0      0.00%     78.06% # Class of executed instruction
system.cpu.op_class::FloatCvt                       0      0.00%     78.06% # Class of executed instruction
system.cpu.op_class::FloatMult                      0      0.00%     78.06% # Class of executed instruction
system.cpu.op_class::FloatMultAcc                   0      0.00%     78.06% # Class of executed instruction
system.cpu.op_class::FloatDiv                       0      0.00%     78.06% # Class of executed instruction
system.cpu.op_class::FloatMisc                      0      0.00%     78.06% # Class of executed instruction
system.cpu.op_class::FloatSqrt                      0      0.00%     78.06% # Class of executed instruction
system.cpu.op_class::SimdAdd                    21730      0.12%     78.18% # Class of executed instruction
system.cpu.op_class::SimdAddAcc                     0      0.00%     78.18% # Class of executed instruction
system.cpu.op_class::SimdAlu                    18835      0.11%     78.29% # Class of executed instruction
system.cpu.op_class::SimdCmp                     1386      0.01%     78.30% # Class of executed instruction
system.cpu.op_class::SimdCvt                    25826      0.14%     78.44% # Class of executed instruction
system.cpu.op_class::SimdMisc                   32947      0.18%     78.62% # Class of executed instruction
system.cpu.op_class::SimdMult                       0      0.00%     78.62% # Class of executed instruction
system.cpu.op_class::SimdMultAcc                    0      0.00%     78.62% # Class of executed instruction
system.cpu.op_class::SimdShift                   9573      0.05%     78.68% # Class of executed instruction
system.cpu.op_class::SimdShiftAcc                   0      0.00%     78.68% # Class of executed instruction
system.cpu.op_class::SimdSqrt                       0      0.00%     78.68% # Class of executed instruction
system.cpu.op_class::SimdFloatAdd                6249      0.03%     78.71% # Class of executed instruction
system.cpu.op_class::SimdFloatAlu                   0      0.00%     78.71% # Class of executed instruction
system.cpu.op_class::SimdFloatCmp                  15      0.00%     78.71% # Class of executed instruction
system.cpu.op_class::SimdFloatCvt                7487      0.04%     78.75% # Class of executed instruction
system.cpu.op_class::SimdFloatDiv                 633      0.00%     78.76% # Class of executed instruction
system.cpu.op_class::SimdFloatMisc                  0      0.00%     78.76% # Class of executed instruction
system.cpu.op_class::SimdFloatMult               4019      0.02%     78.78% # Class of executed instruction
system.cpu.op_class::SimdFloatMultAcc               0      0.00%     78.78% # Class of executed instruction
system.cpu.op_class::SimdFloatSqrt                  5      0.00%     78.78% # Class of executed instruction
system.cpu.op_class::SimdAes                        0      0.00%     78.78% # Class of executed instruction
system.cpu.op_class::SimdAesMix                     0      0.00%     78.78% # Class of executed instruction
system.cpu.op_class::SimdSha1Hash                   0      0.00%     78.78% # Class of executed instruction
system.cpu.op_class::SimdSha1Hash2                  0      0.00%     78.78% # Class of executed instruction
system.cpu.op_class::SimdSha256Hash                 0      0.00%     78.78% # Class of executed instruction
system.cpu.op_class::SimdSha256Hash2                0      0.00%     78.78% # Class of executed instruction
system.cpu.op_class::SimdShaSigma2                  0      0.00%     78.78% # Class of executed instruction
system.cpu.op_class::SimdShaSigma3                  0      0.00%     78.78% # Class of executed instruction
system.cpu.op_class::MemRead                  2132397     11.92%     90.70% # Class of executed instruction
system.cpu.op_class::MemWrite                 1370195      7.66%     98.36% # Class of executed instruction
system.cpu.op_class::FloatMemRead               59125      0.33%     98.69% # Class of executed instruction
system.cpu.op_class::FloatMemWrite             233872      1.31%    100.00% # Class of executed instruction
system.cpu.op_class::IprAccess                      0      0.00%    100.00% # Class of executed instruction
system.cpu.op_class::InstPrefetch                   0      0.00%    100.00% # Class of executed instruction
system.cpu.op_class::total                   17887310                       # Class of executed instruction
system.membus.snoop_filter.tot_requests             0                       # Total number of requests made to the snoop filter.
system.membus.snoop_filter.hit_single_requests            0                       # Number of requests hitting in the snoop filter with a single holder of the requested data.
system.membus.snoop_filter.hit_multi_requests            0                       # Number of requests hitting in the snoop filter with multiple (>1) holders of the requested data.
system.membus.snoop_filter.tot_snoops               0                       # Total number of snoops made to the snoop filter.
system.membus.snoop_filter.hit_single_snoops            0                       # Number of snoops hitting in the snoop filter with a single holder of the requested data.
system.membus.snoop_filter.hit_multi_snoops            0                       # Number of snoops hitting in the snoop filter with multiple (>1) holders of the requested data.
system.membus.pwrStateResidencyTicks::UNDEFINED 853195782500                       # Cumulative time (in ticks) in various power states
system.membus.trans_dist::ReadReq            15565046                       # Transaction distribution
system.membus.trans_dist::ReadResp           15565045                       # Transaction distribution
system.membus.trans_dist::WriteReq            1606288                       # Transaction distribution
system.membus.trans_dist::WriteResp           1606288                       # Transaction distribution
system.membus.pkt_count_system.checker-master::system.mem_ctrl.port      7599668                       # Packet count per connected master and slave (bytes)
system.membus.pkt_count_system.checker-master::total      7599668                       # Packet count per connected master and slave (bytes)
system.membus.pkt_count_system.cpu.icache_port::system.mem_ctrl.port     26742999                       # Packet count per connected master and slave (bytes)
system.membus.pkt_count_system.cpu.icache_port::total     26742999                       # Packet count per connected master and slave (bytes)
system.membus.pkt_count::total               34342667                       # Packet count per connected master and slave (bytes)
system.membus.pkt_size_system.checker-master::system.mem_ctrl.port     22107558                       # Cumulative packet size per connected master and slave (bytes)
system.membus.pkt_size_system.checker-master::total     22107558                       # Cumulative packet size per connected master and slave (bytes)
system.membus.pkt_size_system.cpu.icache_port::system.mem_ctrl.port    106971992                       # Cumulative packet size per connected master and slave (bytes)
system.membus.pkt_size_system.cpu.icache_port::total    106971992                       # Cumulative packet size per connected master and slave (bytes)
system.membus.pkt_size::total               129079550                       # Cumulative packet size per connected master and slave (bytes)
system.membus.snoops                                0                       # Total snoops (count)
system.membus.snoopTraffic                          0                       # Total snoop traffic (bytes)
system.membus.snoop_fanout::samples          17171334                       # Request fanout histogram
system.membus.snoop_fanout::mean                    0                       # Request fanout histogram
system.membus.snoop_fanout::stdev                   0                       # Request fanout histogram
system.membus.snoop_fanout::underflows              0      0.00%      0.00% # Request fanout histogram
system.membus.snoop_fanout::0                17171334    100.00%    100.00% # Request fanout histogram
system.membus.snoop_fanout::1                       0      0.00%    100.00% # Request fanout histogram
system.membus.snoop_fanout::overflows               0      0.00%    100.00% # Request fanout histogram
system.membus.snoop_fanout::min_value               0                       # Request fanout histogram
system.membus.snoop_fanout::max_value               0                       # Request fanout histogram
system.membus.snoop_fanout::total            17171334                       # Request fanout histogram
system.membus.reqLayer2.occupancy          9388811000                       # Layer occupancy (ticks)
system.membus.reqLayer2.utilization               1.1                       # Layer utilization (%)
system.membus.respLayer0.occupancy         3376650000                       # Layer occupancy (ticks)
system.membus.respLayer0.utilization              0.4                       # Layer utilization (%)
system.membus.respLayer1.occupancy        16509847750                       # Layer occupancy (ticks)
system.membus.respLayer1.utilization              1.9                       # Layer utilization (%)

---------- End Simulation Statistics   ----------
