
---------- Begin Simulation Statistics ----------
sim_seconds                                  0.008097                       # Number of seconds simulated
sim_ticks                                  8096860000                       # Number of ticks simulated
final_tick                                 8096860000                       # Number of ticks from beginning of simulation (restored from checkpoints and never reset)
sim_freq                                 1000000000000                       # Frequency of simulated ticks
host_inst_rate                                  24970                       # Simulator instruction rate (inst/s)
host_op_rate                                    41393                       # Simulator op (including micro ops) rate (op/s)
host_tick_rate                             2021760335                       # Simulator tick rate (ticks/s)
host_mem_usage                                2392920                       # Number of bytes of host memory used
host_seconds                                     4.01                       # Real time elapsed on the host
sim_insts                                      100000                       # Number of instructions simulated
sim_ops                                        165772                       # Number of ops (including micro ops) simulated
system.clk_domain.voltage_domain.voltage            1                       # Voltage in Volts
system.clk_domain.clock                           500                       # Clock period in ticks
system.mem_ctrl.pwrStateResidencyTicks::UNDEFINED   8096860000                       # Cumulative time (in ticks) in various power states
system.mem_ctrl.bytes_read::.cpu.inst         1096936                       # Number of bytes read from this memory
system.mem_ctrl.bytes_read::.cpu.data           56264                       # Number of bytes read from this memory
system.mem_ctrl.bytes_read::total             1153200                       # Number of bytes read from this memory
system.mem_ctrl.bytes_inst_read::.cpu.inst      1096936                       # Number of instructions bytes read from this memory
system.mem_ctrl.bytes_inst_read::total        1096936                       # Number of instructions bytes read from this memory
system.mem_ctrl.bytes_written::.cpu.data        57527                       # Number of bytes written to this memory
system.mem_ctrl.bytes_written::total            57527                       # Number of bytes written to this memory
system.mem_ctrl.num_reads::.cpu.inst           137117                       # Number of read requests responded to by this memory
system.mem_ctrl.num_reads::.cpu.data            13045                       # Number of read requests responded to by this memory
system.mem_ctrl.num_reads::total               150162                       # Number of read requests responded to by this memory
system.mem_ctrl.num_writes::.cpu.data           13048                       # Number of write requests responded to by this memory
system.mem_ctrl.num_writes::total               13048                       # Number of write requests responded to by this memory
system.mem_ctrl.bw_read::.cpu.inst          135476716                       # Total read bandwidth from this memory (bytes/s)
system.mem_ctrl.bw_read::.cpu.data            6948867                       # Total read bandwidth from this memory (bytes/s)
system.mem_ctrl.bw_read::total              142425582                       # Total read bandwidth from this memory (bytes/s)
system.mem_ctrl.bw_inst_read::.cpu.inst     135476716                       # Instruction read bandwidth from this memory (bytes/s)
system.mem_ctrl.bw_inst_read::total         135476716                       # Instruction read bandwidth from this memory (bytes/s)
system.mem_ctrl.bw_write::.cpu.data           7104853                       # Write bandwidth from this memory (bytes/s)
system.mem_ctrl.bw_write::total               7104853                       # Write bandwidth from this memory (bytes/s)
system.mem_ctrl.bw_total::.cpu.inst         135476716                       # Total bandwidth to/from this memory (bytes/s)
system.mem_ctrl.bw_total::.cpu.data          14053720                       # Total bandwidth to/from this memory (bytes/s)
system.mem_ctrl.bw_total::total             149530435                       # Total bandwidth to/from this memory (bytes/s)
system.mem_ctrl.avgPriority_.cpu.inst::samples    137118.00                       # Average QoS priority value for accepted requests
system.mem_ctrl.avgPriority_.cpu.data::samples     13736.00                       # Average QoS priority value for accepted requests
system.mem_ctrl.priorityMinLatency       0.000000018750                       # per QoS priority minimum request to response latency (s)
system.mem_ctrl.priorityMaxLatency       0.010219589750                       # per QoS priority maximum request to response latency (s)
system.mem_ctrl.numReadWriteTurnArounds            56                       # Number of turnarounds from READ to WRITE
system.mem_ctrl.numWriteReadTurnArounds            56                       # Number of turnarounds from WRITE to READ
system.mem_ctrl.numStayReadState               314015                       # Number of times bus staying in READ state
system.mem_ctrl.numStayWriteState                 873                       # Number of times bus staying in WRITE state
system.mem_ctrl.readReqs                       150163                       # Number of read requests accepted
system.mem_ctrl.writeReqs                       13048                       # Number of write requests accepted
system.mem_ctrl.readBursts                     150163                       # Number of DRAM read bursts, including those serviced by the write queue
system.mem_ctrl.writeBursts                     13048                       # Number of DRAM write bursts, including those merged in the write queue
system.mem_ctrl.bytesReadDRAM                 9595904                       # Total number of bytes read from DRAM
system.mem_ctrl.bytesReadWrQ                    14528                       # Total number of bytes read from write queue
system.mem_ctrl.bytesWritten                    57344                       # Total number of bytes written to DRAM
system.mem_ctrl.bytesReadSys                  1153208                       # Total read bytes from the system interface side
system.mem_ctrl.bytesWrittenSys                 57527                       # Total written bytes from the system interface side
system.mem_ctrl.servicedByWrQ                     227                       # Number of DRAM read bursts serviced by the write queue
system.mem_ctrl.mergedWrBursts                  12130                       # Number of DRAM write bursts merged with an existing one
system.mem_ctrl.neitherReadNorWriteReqs             0                       # Number of requests that are neither read nor write
system.mem_ctrl.perBankRdBursts::0              12945                       # Per bank write bursts
system.mem_ctrl.perBankRdBursts::1             126896                       # Per bank write bursts
system.mem_ctrl.perBankRdBursts::2                161                       # Per bank write bursts
system.mem_ctrl.perBankRdBursts::3                732                       # Per bank write bursts
system.mem_ctrl.perBankRdBursts::4                355                       # Per bank write bursts
system.mem_ctrl.perBankRdBursts::5                514                       # Per bank write bursts
system.mem_ctrl.perBankRdBursts::6                322                       # Per bank write bursts
system.mem_ctrl.perBankRdBursts::7                323                       # Per bank write bursts
system.mem_ctrl.perBankRdBursts::8               1955                       # Per bank write bursts
system.mem_ctrl.perBankRdBursts::9                  3                       # Per bank write bursts
system.mem_ctrl.perBankRdBursts::10              1039                       # Per bank write bursts
system.mem_ctrl.perBankRdBursts::11               583                       # Per bank write bursts
system.mem_ctrl.perBankRdBursts::12                 0                       # Per bank write bursts
system.mem_ctrl.perBankRdBursts::13              1102                       # Per bank write bursts
system.mem_ctrl.perBankRdBursts::14              2070                       # Per bank write bursts
system.mem_ctrl.perBankRdBursts::15               936                       # Per bank write bursts
system.mem_ctrl.perBankWrBursts::0                 58                       # Per bank write bursts
system.mem_ctrl.perBankWrBursts::1                  5                       # Per bank write bursts
system.mem_ctrl.perBankWrBursts::2                 44                       # Per bank write bursts
system.mem_ctrl.perBankWrBursts::3                  5                       # Per bank write bursts
system.mem_ctrl.perBankWrBursts::4                 65                       # Per bank write bursts
system.mem_ctrl.perBankWrBursts::5                128                       # Per bank write bursts
system.mem_ctrl.perBankWrBursts::6                128                       # Per bank write bursts
system.mem_ctrl.perBankWrBursts::7                128                       # Per bank write bursts
system.mem_ctrl.perBankWrBursts::8                128                       # Per bank write bursts
system.mem_ctrl.perBankWrBursts::9                116                       # Per bank write bursts
system.mem_ctrl.perBankWrBursts::10                 0                       # Per bank write bursts
system.mem_ctrl.perBankWrBursts::11                 0                       # Per bank write bursts
system.mem_ctrl.perBankWrBursts::12                 0                       # Per bank write bursts
system.mem_ctrl.perBankWrBursts::13                 3                       # Per bank write bursts
system.mem_ctrl.perBankWrBursts::14                73                       # Per bank write bursts
system.mem_ctrl.perBankWrBursts::15                15                       # Per bank write bursts
system.mem_ctrl.numRdRetry                          0                       # Number of times read queue was full causing retry
system.mem_ctrl.numWrRetry                          0                       # Number of times write queue was full causing retry
system.mem_ctrl.totGap                     8096788500                       # Total gap between requests
system.mem_ctrl.readPktSize::0                    133                       # Read request sizes (log2)
system.mem_ctrl.readPktSize::1                     17                       # Read request sizes (log2)
system.mem_ctrl.readPktSize::2                  11764                       # Read request sizes (log2)
system.mem_ctrl.readPktSize::3                 138249                       # Read request sizes (log2)
system.mem_ctrl.readPktSize::4                      0                       # Read request sizes (log2)
system.mem_ctrl.readPktSize::5                      0                       # Read request sizes (log2)
system.mem_ctrl.readPktSize::6                      0                       # Read request sizes (log2)
system.mem_ctrl.writePktSize::0                    31                       # Write request sizes (log2)
system.mem_ctrl.writePktSize::1                     6                       # Write request sizes (log2)
system.mem_ctrl.writePktSize::2                 11651                       # Write request sizes (log2)
system.mem_ctrl.writePktSize::3                  1360                       # Write request sizes (log2)
system.mem_ctrl.writePktSize::4                     0                       # Write request sizes (log2)
system.mem_ctrl.writePktSize::5                     0                       # Write request sizes (log2)
system.mem_ctrl.writePktSize::6                     0                       # Write request sizes (log2)
system.mem_ctrl.rdQLenPdf::0                   149930                       # What read queue length does an incoming req see
system.mem_ctrl.rdQLenPdf::1                        6                       # What read queue length does an incoming req see
system.mem_ctrl.rdQLenPdf::2                        0                       # What read queue length does an incoming req see
system.mem_ctrl.rdQLenPdf::3                        0                       # What read queue length does an incoming req see
system.mem_ctrl.rdQLenPdf::4                        0                       # What read queue length does an incoming req see
system.mem_ctrl.rdQLenPdf::5                        0                       # What read queue length does an incoming req see
system.mem_ctrl.rdQLenPdf::6                        0                       # What read queue length does an incoming req see
system.mem_ctrl.rdQLenPdf::7                        0                       # What read queue length does an incoming req see
system.mem_ctrl.rdQLenPdf::8                        0                       # What read queue length does an incoming req see
system.mem_ctrl.rdQLenPdf::9                        0                       # What read queue length does an incoming req see
system.mem_ctrl.rdQLenPdf::10                       0                       # What read queue length does an incoming req see
system.mem_ctrl.rdQLenPdf::11                       0                       # What read queue length does an incoming req see
system.mem_ctrl.rdQLenPdf::12                       0                       # What read queue length does an incoming req see
system.mem_ctrl.rdQLenPdf::13                       0                       # What read queue length does an incoming req see
system.mem_ctrl.rdQLenPdf::14                       0                       # What read queue length does an incoming req see
system.mem_ctrl.rdQLenPdf::15                       0                       # What read queue length does an incoming req see
system.mem_ctrl.rdQLenPdf::16                       0                       # What read queue length does an incoming req see
system.mem_ctrl.rdQLenPdf::17                       0                       # What read queue length does an incoming req see
system.mem_ctrl.rdQLenPdf::18                       0                       # What read queue length does an incoming req see
system.mem_ctrl.rdQLenPdf::19                       0                       # What read queue length does an incoming req see
system.mem_ctrl.rdQLenPdf::20                       0                       # What read queue length does an incoming req see
system.mem_ctrl.rdQLenPdf::21                       0                       # What read queue length does an incoming req see
system.mem_ctrl.rdQLenPdf::22                       0                       # What read queue length does an incoming req see
system.mem_ctrl.rdQLenPdf::23                       0                       # What read queue length does an incoming req see
system.mem_ctrl.rdQLenPdf::24                       0                       # What read queue length does an incoming req see
system.mem_ctrl.rdQLenPdf::25                       0                       # What read queue length does an incoming req see
system.mem_ctrl.rdQLenPdf::26                       0                       # What read queue length does an incoming req see
system.mem_ctrl.rdQLenPdf::27                       0                       # What read queue length does an incoming req see
system.mem_ctrl.rdQLenPdf::28                       0                       # What read queue length does an incoming req see
system.mem_ctrl.rdQLenPdf::29                       0                       # What read queue length does an incoming req see
system.mem_ctrl.rdQLenPdf::30                       0                       # What read queue length does an incoming req see
system.mem_ctrl.rdQLenPdf::31                       0                       # What read queue length does an incoming req see
system.mem_ctrl.wrQLenPdf::0                        1                       # What write queue length does an incoming req see
system.mem_ctrl.wrQLenPdf::1                        1                       # What write queue length does an incoming req see
system.mem_ctrl.wrQLenPdf::2                        1                       # What write queue length does an incoming req see
system.mem_ctrl.wrQLenPdf::3                        1                       # What write queue length does an incoming req see
system.mem_ctrl.wrQLenPdf::4                        1                       # What write queue length does an incoming req see
system.mem_ctrl.wrQLenPdf::5                        1                       # What write queue length does an incoming req see
system.mem_ctrl.wrQLenPdf::6                        1                       # What write queue length does an incoming req see
system.mem_ctrl.wrQLenPdf::7                        1                       # What write queue length does an incoming req see
system.mem_ctrl.wrQLenPdf::8                        1                       # What write queue length does an incoming req see
system.mem_ctrl.wrQLenPdf::9                        1                       # What write queue length does an incoming req see
system.mem_ctrl.wrQLenPdf::10                       1                       # What write queue length does an incoming req see
system.mem_ctrl.wrQLenPdf::11                       1                       # What write queue length does an incoming req see
system.mem_ctrl.wrQLenPdf::12                       1                       # What write queue length does an incoming req see
system.mem_ctrl.wrQLenPdf::13                       1                       # What write queue length does an incoming req see
system.mem_ctrl.wrQLenPdf::14                       1                       # What write queue length does an incoming req see
system.mem_ctrl.wrQLenPdf::15                       1                       # What write queue length does an incoming req see
system.mem_ctrl.wrQLenPdf::16                       1                       # What write queue length does an incoming req see
system.mem_ctrl.wrQLenPdf::17                      57                       # What write queue length does an incoming req see
system.mem_ctrl.wrQLenPdf::18                      57                       # What write queue length does an incoming req see
system.mem_ctrl.wrQLenPdf::19                      57                       # What write queue length does an incoming req see
system.mem_ctrl.wrQLenPdf::20                      57                       # What write queue length does an incoming req see
system.mem_ctrl.wrQLenPdf::21                      57                       # What write queue length does an incoming req see
system.mem_ctrl.wrQLenPdf::22                      56                       # What write queue length does an incoming req see
system.mem_ctrl.wrQLenPdf::23                      56                       # What write queue length does an incoming req see
system.mem_ctrl.wrQLenPdf::24                      56                       # What write queue length does an incoming req see
system.mem_ctrl.wrQLenPdf::25                      56                       # What write queue length does an incoming req see
system.mem_ctrl.wrQLenPdf::26                      56                       # What write queue length does an incoming req see
system.mem_ctrl.wrQLenPdf::27                      56                       # What write queue length does an incoming req see
system.mem_ctrl.wrQLenPdf::28                      56                       # What write queue length does an incoming req see
system.mem_ctrl.wrQLenPdf::29                      56                       # What write queue length does an incoming req see
system.mem_ctrl.wrQLenPdf::30                      56                       # What write queue length does an incoming req see
system.mem_ctrl.wrQLenPdf::31                      56                       # What write queue length does an incoming req see
system.mem_ctrl.wrQLenPdf::32                      56                       # What write queue length does an incoming req see
system.mem_ctrl.wrQLenPdf::33                       0                       # What write queue length does an incoming req see
system.mem_ctrl.wrQLenPdf::34                       0                       # What write queue length does an incoming req see
system.mem_ctrl.wrQLenPdf::35                       0                       # What write queue length does an incoming req see
system.mem_ctrl.wrQLenPdf::36                       0                       # What write queue length does an incoming req see
system.mem_ctrl.wrQLenPdf::37                       0                       # What write queue length does an incoming req see
system.mem_ctrl.wrQLenPdf::38                       0                       # What write queue length does an incoming req see
system.mem_ctrl.wrQLenPdf::39                       0                       # What write queue length does an incoming req see
system.mem_ctrl.wrQLenPdf::40                       0                       # What write queue length does an incoming req see
system.mem_ctrl.wrQLenPdf::41                       0                       # What write queue length does an incoming req see
system.mem_ctrl.wrQLenPdf::42                       0                       # What write queue length does an incoming req see
system.mem_ctrl.wrQLenPdf::43                       0                       # What write queue length does an incoming req see
system.mem_ctrl.wrQLenPdf::44                       0                       # What write queue length does an incoming req see
system.mem_ctrl.wrQLenPdf::45                       0                       # What write queue length does an incoming req see
system.mem_ctrl.wrQLenPdf::46                       0                       # What write queue length does an incoming req see
system.mem_ctrl.wrQLenPdf::47                       0                       # What write queue length does an incoming req see
system.mem_ctrl.wrQLenPdf::48                       0                       # What write queue length does an incoming req see
system.mem_ctrl.wrQLenPdf::49                       0                       # What write queue length does an incoming req see
system.mem_ctrl.wrQLenPdf::50                       0                       # What write queue length does an incoming req see
system.mem_ctrl.wrQLenPdf::51                       0                       # What write queue length does an incoming req see
system.mem_ctrl.wrQLenPdf::52                       0                       # What write queue length does an incoming req see
system.mem_ctrl.wrQLenPdf::53                       0                       # What write queue length does an incoming req see
system.mem_ctrl.wrQLenPdf::54                       0                       # What write queue length does an incoming req see
system.mem_ctrl.wrQLenPdf::55                       0                       # What write queue length does an incoming req see
system.mem_ctrl.wrQLenPdf::56                       0                       # What write queue length does an incoming req see
system.mem_ctrl.wrQLenPdf::57                       0                       # What write queue length does an incoming req see
system.mem_ctrl.wrQLenPdf::58                       0                       # What write queue length does an incoming req see
system.mem_ctrl.wrQLenPdf::59                       0                       # What write queue length does an incoming req see
system.mem_ctrl.wrQLenPdf::60                       0                       # What write queue length does an incoming req see
system.mem_ctrl.wrQLenPdf::61                       0                       # What write queue length does an incoming req see
system.mem_ctrl.wrQLenPdf::62                       0                       # What write queue length does an incoming req see
system.mem_ctrl.wrQLenPdf::63                       0                       # What write queue length does an incoming req see
system.mem_ctrl.bytesPerActivate::samples        10909                       # Bytes accessed per row activation
system.mem_ctrl.bytesPerActivate::mean     884.753506                       # Bytes accessed per row activation
system.mem_ctrl.bytesPerActivate::gmean    793.421808                       # Bytes accessed per row activation
system.mem_ctrl.bytesPerActivate::stdev    274.430185                       # Bytes accessed per row activation
system.mem_ctrl.bytesPerActivate::0-127           288      2.64%      2.64% # Bytes accessed per row activation
system.mem_ctrl.bytesPerActivate::128-255          187      1.71%      4.35% # Bytes accessed per row activation
system.mem_ctrl.bytesPerActivate::256-383          987      9.05%     13.40% # Bytes accessed per row activation
system.mem_ctrl.bytesPerActivate::384-511           85      0.78%     14.18% # Bytes accessed per row activation
system.mem_ctrl.bytesPerActivate::512-639           81      0.74%     14.92% # Bytes accessed per row activation
system.mem_ctrl.bytesPerActivate::640-767          101      0.93%     15.85% # Bytes accessed per row activation
system.mem_ctrl.bytesPerActivate::768-895          989      9.07%     24.92% # Bytes accessed per row activation
system.mem_ctrl.bytesPerActivate::896-1023           38      0.35%     25.26% # Bytes accessed per row activation
system.mem_ctrl.bytesPerActivate::1024-1151         8153     74.74%    100.00% # Bytes accessed per row activation
system.mem_ctrl.bytesPerActivate::total         10909                       # Bytes accessed per row activation
system.mem_ctrl.rdPerTurnAround::samples           56                       # Reads before turning the bus around for writes
system.mem_ctrl.rdPerTurnAround::mean     2657.892857                       # Reads before turning the bus around for writes
system.mem_ctrl.rdPerTurnAround::gmean    2341.564148                       # Reads before turning the bus around for writes
system.mem_ctrl.rdPerTurnAround::stdev     926.266694                       # Reads before turning the bus around for writes
system.mem_ctrl.rdPerTurnAround::256-511            4      7.14%      7.14% # Reads before turning the bus around for writes
system.mem_ctrl.rdPerTurnAround::512-767            2      3.57%     10.71% # Reads before turning the bus around for writes
system.mem_ctrl.rdPerTurnAround::768-1023            2      3.57%     14.29% # Reads before turning the bus around for writes
system.mem_ctrl.rdPerTurnAround::1024-1279            1      1.79%     16.07% # Reads before turning the bus around for writes
system.mem_ctrl.rdPerTurnAround::1536-1791            1      1.79%     17.86% # Reads before turning the bus around for writes
system.mem_ctrl.rdPerTurnAround::2048-2303            1      1.79%     19.64% # Reads before turning the bus around for writes
system.mem_ctrl.rdPerTurnAround::2816-3071            1      1.79%     21.43% # Reads before turning the bus around for writes
system.mem_ctrl.rdPerTurnAround::3072-3327           43     76.79%     98.21% # Reads before turning the bus around for writes
system.mem_ctrl.rdPerTurnAround::4096-4351            1      1.79%    100.00% # Reads before turning the bus around for writes
system.mem_ctrl.rdPerTurnAround::total             56                       # Reads before turning the bus around for writes
system.mem_ctrl.wrPerTurnAround::samples           56                       # Writes before turning the bus around for reads
system.mem_ctrl.wrPerTurnAround::mean              16                       # Writes before turning the bus around for reads
system.mem_ctrl.wrPerTurnAround::gmean      16.000000                       # Writes before turning the bus around for reads
system.mem_ctrl.wrPerTurnAround::16                56    100.00%    100.00% # Writes before turning the bus around for reads
system.mem_ctrl.wrPerTurnAround::total             56                       # Writes before turning the bus around for reads
system.mem_ctrl.masterReadBytes::.cpu.inst      1096944                       # Per-master bytes read from memory
system.mem_ctrl.masterReadBytes::.cpu.data        54751                       # Per-master bytes read from memory
system.mem_ctrl.masterWriteBytes::.cpu.data         4262                       # Per-master bytes write to memory
system.mem_ctrl.masterReadRate::.cpu.inst 135477703.702422887087                       # Per-master bytes read from memory rate (Bytes/sec)
system.mem_ctrl.masterReadRate::.cpu.data 6762004.036132524721                       # Per-master bytes read from memory rate (Bytes/sec)
system.mem_ctrl.masterWriteRate::.cpu.data 526376.891782740364                       # Per-master bytes write to memory rate (Bytes/sec)
system.mem_ctrl.masterReadAccesses::.cpu.inst       137118                       # Per-master read serviced memory accesses
system.mem_ctrl.masterReadAccesses::.cpu.data        13045                       # Per-master read serviced memory accesses
system.mem_ctrl.masterWriteAccesses::.cpu.data        13048                       # Per-master write serviced memory accesses
system.mem_ctrl.masterReadTotalLat::.cpu.inst   3746128000                       # Per-master read total memory access latency
system.mem_ctrl.masterReadTotalLat::.cpu.data    362069750                       # Per-master read total memory access latency
system.mem_ctrl.masterWriteTotalLat::.cpu.data 196671492250                       # Per-master write total memory access latency
system.mem_ctrl.masterReadAvgLat::.cpu.inst     27320.47                       # Per-master read average memory access latency
system.mem_ctrl.masterReadAvgLat::.cpu.data     27755.44                       # Per-master read average memory access latency
system.mem_ctrl.masterWriteAvgLat::.cpu.data  15072922.46                       # Per-master write average memory access latency
system.mem_ctrl.totQLat                    1296897750                       # Total ticks spent queuing
system.mem_ctrl.totMemAccLat               4108197750                       # Total ticks spent from burst creation until serviced by the DRAM
system.mem_ctrl.totBusLat                   749680000                       # Total ticks spent in databus transfers
system.mem_ctrl.avgQLat                       8649.68                       # Average queueing delay per DRAM burst
system.mem_ctrl.avgBusLat                     5000.00                       # Average bus latency per DRAM burst
system.mem_ctrl.avgMemAccLat                 27399.68                       # Average memory access latency per DRAM burst
system.mem_ctrl.avgRdBW                       1185.14                       # Average DRAM read bandwidth in MiByte/s
system.mem_ctrl.avgWrBW                          7.08                       # Average achieved write bandwidth in MiByte/s
system.mem_ctrl.avgRdBWSys                     142.43                       # Average system read bandwidth in MiByte/s
system.mem_ctrl.avgWrBWSys                       7.10                       # Average system write bandwidth in MiByte/s
system.mem_ctrl.peakBW                       12800.00                       # Theoretical peak bandwidth in MiByte/s
system.mem_ctrl.busUtil                          9.31                       # Data bus utilization in percentage
system.mem_ctrl.busUtilRead                      9.26                       # Data bus utilization in percentage for reads
system.mem_ctrl.busUtilWrite                     0.06                       # Data bus utilization in percentage for writes
system.mem_ctrl.avgRdQLen                        1.00                       # Average read queue length when enqueuing
system.mem_ctrl.avgWrQLen                       25.52                       # Average write queue length when enqueuing
system.mem_ctrl.readRowHits                    139098                       # Number of row buffer hits during reads
system.mem_ctrl.writeRowHits                      823                       # Number of row buffer hits during writes
system.mem_ctrl.readRowHitRate                  92.77                       # Row buffer hit rate for reads
system.mem_ctrl.writeRowHitRate                 89.65                       # Row buffer hit rate for writes
system.mem_ctrl.avgGap                       49609.33                       # Average gap between requests
system.mem_ctrl.pageHitRate                     92.75                       # Row buffer hit rate, read and write combined
system.mem_ctrl_0.actEnergy                  71949780                       # Energy for activate commands per rank (pJ)
system.mem_ctrl_0.preEnergy                  38234625                       # Energy for precharge commands per rank (pJ)
system.mem_ctrl_0.readEnergy               1015643580                       # Energy for read commands per rank (pJ)
system.mem_ctrl_0.writeEnergy                 2928420                       # Energy for write commands per rank (pJ)
system.mem_ctrl_0.refreshEnergy          636152400.000000                       # Energy for refresh commands per rank (pJ)
system.mem_ctrl_0.actBackEnergy            1866441630                       # Energy for active background per rank (pJ)
system.mem_ctrl_0.preBackEnergy              14338560                       # Energy for precharge background per rank (pJ)
system.mem_ctrl_0.actPowerDownEnergy       1765299120                       # Energy for active power-down per rank (pJ)
system.mem_ctrl_0.prePowerDownEnergy         24448320                       # Energy for precharge power-down per rank (pJ)
system.mem_ctrl_0.selfRefreshEnergy           9771060                       # Energy for self refresh per rank (pJ)
system.mem_ctrl_0.totalEnergy              5445255525                       # Total energy per rank (pJ)
system.mem_ctrl_0.averagePower             672.514472                       # Core power per rank (mW)
system.mem_ctrl_0.totalIdleTime            3967425750                       # Total Idle time Per DRAM Rank
system.mem_ctrl_0.memoryStateTime::IDLE       7416000                       # Time in different power states
system.mem_ctrl_0.memoryStateTime::REF      269100000                       # Time in different power states
system.mem_ctrl_0.memoryStateTime::SREF      31402250                       # Time in different power states
system.mem_ctrl_0.memoryStateTime::PRE_PDN     63659000                       # Time in different power states
system.mem_ctrl_0.memoryStateTime::ACT     3852918250                       # Time in different power states
system.mem_ctrl_0.memoryStateTime::ACT_PDN   3872364500                       # Time in different power states
system.mem_ctrl_1.actEnergy                   5954760                       # Energy for activate commands per rank (pJ)
system.mem_ctrl_1.preEnergy                   3165030                       # Energy for precharge commands per rank (pJ)
system.mem_ctrl_1.readEnergy                 54892320                       # Energy for read commands per rank (pJ)
system.mem_ctrl_1.writeEnergy                 1748700                       # Energy for write commands per rank (pJ)
system.mem_ctrl_1.refreshEnergy          84205680.000000                       # Energy for refresh commands per rank (pJ)
system.mem_ctrl_1.actBackEnergy             119083260                       # Energy for active background per rank (pJ)
system.mem_ctrl_1.preBackEnergy               9628320                       # Energy for precharge background per rank (pJ)
system.mem_ctrl_1.actPowerDownEnergy        176957640                       # Energy for active power-down per rank (pJ)
system.mem_ctrl_1.prePowerDownEnergy        158985600                       # Energy for precharge power-down per rank (pJ)
system.mem_ctrl_1.selfRefreshEnergy        1710215940                       # Energy for self refresh per rank (pJ)
system.mem_ctrl_1.totalEnergy              2324837250                       # Total energy per rank (pJ)
system.mem_ctrl_1.averagePower             287.128251                       # Core power per rank (mW)
system.mem_ctrl_1.totalIdleTime            7759665750                       # Total Idle time Per DRAM Rank
system.mem_ctrl_1.memoryStateTime::IDLE      18843500                       # Time in different power states
system.mem_ctrl_1.memoryStateTime::REF       35620000                       # Time in different power states
system.mem_ctrl_1.memoryStateTime::SREF    7008551500                       # Time in different power states
system.mem_ctrl_1.memoryStateTime::PRE_PDN    414010250                       # Time in different power states
system.mem_ctrl_1.memoryStateTime::ACT      231612500                       # Time in different power states
system.mem_ctrl_1.memoryStateTime::ACT_PDN    388222250                       # Time in different power states
system.pwrStateResidencyTicks::UNDEFINED   8096860000                       # Cumulative time (in ticks) in various power states
system.checker.pwrStateResidencyTicks::UNDEFINED   8096860000                       # Cumulative time (in ticks) in various power states
system.cpu.dtb.walker.pwrStateResidencyTicks::UNDEFINED   8096860000                       # Cumulative time (in ticks) in various power states
system.cpu.dtb.rdAccesses                       13045                       # TLB accesses on read requests
system.cpu.dtb.wrAccesses                       13048                       # TLB accesses on write requests
system.cpu.dtb.rdMisses                            15                       # TLB misses on read requests
system.cpu.dtb.wrMisses                            21                       # TLB misses on write requests
system.cpu.apic_clk_domain.clock                 8000                       # Clock period in ticks
system.cpu.interrupts.pwrStateResidencyTicks::UNDEFINED   8096860000                       # Cumulative time (in ticks) in various power states
system.cpu.itb.walker.pwrStateResidencyTicks::UNDEFINED   8096860000                       # Cumulative time (in ticks) in various power states
system.cpu.itb.rdAccesses                           0                       # TLB accesses on read requests
system.cpu.itb.wrAccesses                      137118                       # TLB accesses on write requests
system.cpu.itb.rdMisses                             0                       # TLB misses on read requests
system.cpu.itb.wrMisses                            48                       # TLB misses on write requests
system.cpu.workload.numSyscalls                    13                       # Number of system calls
system.cpu.pwrStateResidencyTicks::ON      8096860000                       # Cumulative time (in ticks) in various power states
system.cpu.numCycles                         16193720                       # number of cpu cycles simulated
system.cpu.numWorkItemsStarted                      0                       # number of work items this cpu started
system.cpu.numWorkItemsCompleted                    0                       # number of work items this cpu completed
system.cpu.committedInsts                      100000                       # Number of instructions committed
system.cpu.committedOps                        165772                       # Number of ops (including micro ops) committed
system.cpu.num_int_alu_accesses                165355                       # Number of integer alu accesses
system.cpu.num_fp_alu_accesses                    661                       # Number of float alu accesses
system.cpu.num_vec_alu_accesses                     0                       # Number of vector alu accesses
system.cpu.num_func_calls                         310                       # number of times a function call or return occured
system.cpu.num_conditional_control_insts        12822                       # number of instructions that are conditional controls
system.cpu.num_int_insts                       165355                       # number of integer instructions
system.cpu.num_fp_insts                           661                       # number of float instructions
system.cpu.num_vec_insts                            0                       # number of vector instructions
system.cpu.num_int_register_reads              294889                       # number of times the integer registers were read
system.cpu.num_int_register_writes             139165                       # number of times the integer registers were written
system.cpu.num_fp_register_reads                  985                       # number of times the floating registers were read
system.cpu.num_fp_register_writes                 415                       # number of times the floating registers were written
system.cpu.num_vec_register_reads                   0                       # number of times the vector registers were read
system.cpu.num_vec_register_writes                  0                       # number of times the vector registers were written
system.cpu.num_cc_register_reads                78593                       # number of times the CC registers were read
system.cpu.num_cc_register_writes               97007                       # number of times the CC registers were written
system.cpu.num_mem_refs                         26087                       # number of memory refs
system.cpu.num_load_insts                       13039                       # Number of load instructions
system.cpu.num_store_insts                      13048                       # Number of store instructions
system.cpu.num_idle_cycles                          0                       # Number of idle cycles
system.cpu.num_busy_cycles                   16193720                       # Number of busy cycles
system.cpu.not_idle_fraction                        1                       # Percentage of non-idle cycles
system.cpu.idle_fraction                            0                       # Percentage of idle cycles
system.cpu.Branches                             13269                       # Number of branches fetched
system.cpu.op_class::No_OpClass                    66      0.04%      0.04% # Class of executed instruction
system.cpu.op_class::IntAlu                    139128     83.93%     83.97% # Class of executed instruction
system.cpu.op_class::IntMult                       24      0.01%     83.98% # Class of executed instruction
system.cpu.op_class::IntDiv                        77      0.05%     84.03% # Class of executed instruction
system.cpu.op_class::FloatAdd                      23      0.01%     84.04% # Class of executed instruction
system.cpu.op_class::FloatCmp                       0      0.00%     84.04% # Class of executed instruction
system.cpu.op_class::FloatCvt                       0      0.00%     84.04% # Class of executed instruction
system.cpu.op_class::FloatMult                      0      0.00%     84.04% # Class of executed instruction
system.cpu.op_class::FloatMultAcc                   0      0.00%     84.04% # Class of executed instruction
system.cpu.op_class::FloatDiv                       0      0.00%     84.04% # Class of executed instruction
system.cpu.op_class::FloatMisc                      0      0.00%     84.04% # Class of executed instruction
system.cpu.op_class::FloatSqrt                      0      0.00%     84.04% # Class of executed instruction
system.cpu.op_class::SimdAdd                        0      0.00%     84.04% # Class of executed instruction
system.cpu.op_class::SimdAddAcc                     0      0.00%     84.04% # Class of executed instruction
system.cpu.op_class::SimdAlu                      104      0.06%     84.10% # Class of executed instruction
system.cpu.op_class::SimdCmp                        6      0.00%     84.11% # Class of executed instruction
system.cpu.op_class::SimdCvt                       96      0.06%     84.17% # Class of executed instruction
system.cpu.op_class::SimdMisc                     161      0.10%     84.26% # Class of executed instruction
system.cpu.op_class::SimdMult                       0      0.00%     84.26% # Class of executed instruction
system.cpu.op_class::SimdMultAcc                    0      0.00%     84.26% # Class of executed instruction
system.cpu.op_class::SimdShift                      0      0.00%     84.26% # Class of executed instruction
system.cpu.op_class::SimdShiftAcc                   0      0.00%     84.26% # Class of executed instruction
system.cpu.op_class::SimdSqrt                       0      0.00%     84.26% # Class of executed instruction
system.cpu.op_class::SimdFloatAdd                   0      0.00%     84.26% # Class of executed instruction
system.cpu.op_class::SimdFloatAlu                   0      0.00%     84.26% # Class of executed instruction
system.cpu.op_class::SimdFloatCmp                   0      0.00%     84.26% # Class of executed instruction
system.cpu.op_class::SimdFloatCvt                   0      0.00%     84.26% # Class of executed instruction
system.cpu.op_class::SimdFloatDiv                   0      0.00%     84.26% # Class of executed instruction
system.cpu.op_class::SimdFloatMisc                  0      0.00%     84.26% # Class of executed instruction
system.cpu.op_class::SimdFloatMult                  0      0.00%     84.26% # Class of executed instruction
system.cpu.op_class::SimdFloatMultAcc               0      0.00%     84.26% # Class of executed instruction
system.cpu.op_class::SimdFloatSqrt                  0      0.00%     84.26% # Class of executed instruction
system.cpu.op_class::SimdAes                        0      0.00%     84.26% # Class of executed instruction
system.cpu.op_class::SimdAesMix                     0      0.00%     84.26% # Class of executed instruction
system.cpu.op_class::SimdSha1Hash                   0      0.00%     84.26% # Class of executed instruction
system.cpu.op_class::SimdSha1Hash2                  0      0.00%     84.26% # Class of executed instruction
system.cpu.op_class::SimdSha256Hash                 0      0.00%     84.26% # Class of executed instruction
system.cpu.op_class::SimdSha256Hash2                0      0.00%     84.26% # Class of executed instruction
system.cpu.op_class::SimdShaSigma2                  0      0.00%     84.26% # Class of executed instruction
system.cpu.op_class::SimdShaSigma3                  0      0.00%     84.26% # Class of executed instruction
system.cpu.op_class::MemRead                    12971      7.82%     92.09% # Class of executed instruction
system.cpu.op_class::MemWrite                   12886      7.77%     99.86% # Class of executed instruction
system.cpu.op_class::FloatMemRead                  68      0.04%     99.90% # Class of executed instruction
system.cpu.op_class::FloatMemWrite                162      0.10%    100.00% # Class of executed instruction
system.cpu.op_class::IprAccess                      0      0.00%    100.00% # Class of executed instruction
system.cpu.op_class::InstPrefetch                   0      0.00%    100.00% # Class of executed instruction
system.cpu.op_class::total                     165772                       # Class of executed instruction
system.membus.snoop_filter.tot_requests             0                       # Total number of requests made to the snoop filter.
system.membus.snoop_filter.hit_single_requests            0                       # Number of requests hitting in the snoop filter with a single holder of the requested data.
system.membus.snoop_filter.hit_multi_requests            0                       # Number of requests hitting in the snoop filter with multiple (>1) holders of the requested data.
system.membus.snoop_filter.tot_snoops               0                       # Total number of snoops made to the snoop filter.
system.membus.snoop_filter.hit_single_snoops            0                       # Number of snoops hitting in the snoop filter with a single holder of the requested data.
system.membus.snoop_filter.hit_multi_snoops            0                       # Number of snoops hitting in the snoop filter with multiple (>1) holders of the requested data.
system.membus.pwrStateResidencyTicks::UNDEFINED   8096860000                       # Cumulative time (in ticks) in various power states
system.membus.trans_dist::ReadReq              150163                       # Transaction distribution
system.membus.trans_dist::ReadResp             150162                       # Transaction distribution
system.membus.trans_dist::WriteReq              13048                       # Transaction distribution
system.membus.trans_dist::WriteResp             13048                       # Transaction distribution
system.membus.pkt_count_system.checker-master::system.mem_ctrl.port        52186                       # Packet count per connected master and slave (bytes)
system.membus.pkt_count_system.checker-master::total        52186                       # Packet count per connected master and slave (bytes)
system.membus.pkt_count_system.cpu.icache_port::system.mem_ctrl.port       274235                       # Packet count per connected master and slave (bytes)
system.membus.pkt_count_system.cpu.icache_port::total       274235                       # Packet count per connected master and slave (bytes)
system.membus.pkt_count::total                 326421                       # Packet count per connected master and slave (bytes)
system.membus.pkt_size_system.checker-master::system.mem_ctrl.port       113791                       # Cumulative packet size per connected master and slave (bytes)
system.membus.pkt_size_system.checker-master::total       113791                       # Cumulative packet size per connected master and slave (bytes)
system.membus.pkt_size_system.cpu.icache_port::system.mem_ctrl.port      1096936                       # Cumulative packet size per connected master and slave (bytes)
system.membus.pkt_size_system.cpu.icache_port::total      1096936                       # Cumulative packet size per connected master and slave (bytes)
system.membus.pkt_size::total                 1210727                       # Cumulative packet size per connected master and slave (bytes)
system.membus.snoops                                0                       # Total snoops (count)
system.membus.snoopTraffic                          0                       # Total snoop traffic (bytes)
system.membus.snoop_fanout::samples            163211                       # Request fanout histogram
system.membus.snoop_fanout::mean                    0                       # Request fanout histogram
system.membus.snoop_fanout::stdev                   0                       # Request fanout histogram
system.membus.snoop_fanout::underflows              0      0.00%      0.00% # Request fanout histogram
system.membus.snoop_fanout::0                  163211    100.00%    100.00% # Request fanout histogram
system.membus.snoop_fanout::1                       0      0.00%    100.00% # Request fanout histogram
system.membus.snoop_fanout::overflows               0      0.00%    100.00% # Request fanout histogram
system.membus.snoop_fanout::min_value               0                       # Request fanout histogram
system.membus.snoop_fanout::max_value               0                       # Request fanout histogram
system.membus.snoop_fanout::total              163211                       # Request fanout histogram
system.membus.reqLayer2.occupancy            88129500                       # Layer occupancy (ticks)
system.membus.reqLayer2.utilization               1.1                       # Layer utilization (%)
system.membus.respLayer0.occupancy           22496750                       # Layer occupancy (ticks)
system.membus.respLayer0.utilization              0.3                       # Layer utilization (%)
system.membus.respLayer1.occupancy          169204250                       # Layer occupancy (ticks)
system.membus.respLayer1.utilization              2.1                       # Layer utilization (%)

---------- End Simulation Statistics   ----------
