
---------- Begin Simulation Statistics ----------
sim_seconds                                  0.007869                       # Number of seconds simulated
sim_ticks                                  7869081000                       # Number of ticks simulated
final_tick                                 7869081000                       # Number of ticks from beginning of simulation (restored from checkpoints and never reset)
sim_freq                                 1000000000000                       # Frequency of simulated ticks
host_inst_rate                                  11547                       # Simulator instruction rate (inst/s)
host_op_rate                                    20913                       # Simulator op (including micro ops) rate (op/s)
host_tick_rate                              908646324                       # Simulator tick rate (ticks/s)
host_mem_usage                                2373224                       # Number of bytes of host memory used
host_seconds                                     8.66                       # Real time elapsed on the host
sim_insts                                      100001                       # Number of instructions simulated
sim_ops                                        181113                       # Number of ops (including micro ops) simulated
system.clk_domain.voltage_domain.voltage            1                       # Voltage in Volts
system.clk_domain.clock                           500                       # Clock period in ticks
system.mem_ctrl.pwrStateResidencyTicks::UNDEFINED   7869081000                       # Cumulative time (in ticks) in various power states
system.mem_ctrl.bytes_read::.cpu.inst          966184                       # Number of bytes read from this memory
system.mem_ctrl.bytes_read::.cpu.data          158010                       # Number of bytes read from this memory
system.mem_ctrl.bytes_read::total             1124194                       # Number of bytes read from this memory
system.mem_ctrl.bytes_inst_read::.cpu.inst       966184                       # Number of instructions bytes read from this memory
system.mem_ctrl.bytes_inst_read::total         966184                       # Number of instructions bytes read from this memory
system.mem_ctrl.bytes_written::.cpu.data        27959                       # Number of bytes written to this memory
system.mem_ctrl.bytes_written::total            27959                       # Number of bytes written to this memory
system.mem_ctrl.num_reads::.cpu.inst           120773                       # Number of read requests responded to by this memory
system.mem_ctrl.num_reads::.cpu.data            19910                       # Number of read requests responded to by this memory
system.mem_ctrl.num_reads::total               140683                       # Number of read requests responded to by this memory
system.mem_ctrl.num_writes::.cpu.data           20037                       # Number of write requests responded to by this memory
system.mem_ctrl.num_writes::total               20037                       # Number of write requests responded to by this memory
system.mem_ctrl.bw_read::.cpu.inst          122782317                       # Total read bandwidth from this memory (bytes/s)
system.mem_ctrl.bw_read::.cpu.data           20079854                       # Total read bandwidth from this memory (bytes/s)
system.mem_ctrl.bw_read::total              142862172                       # Total read bandwidth from this memory (bytes/s)
system.mem_ctrl.bw_inst_read::.cpu.inst     122782317                       # Instruction read bandwidth from this memory (bytes/s)
system.mem_ctrl.bw_inst_read::total         122782317                       # Instruction read bandwidth from this memory (bytes/s)
system.mem_ctrl.bw_write::.cpu.data           3553020                       # Write bandwidth from this memory (bytes/s)
system.mem_ctrl.bw_write::total               3553020                       # Write bandwidth from this memory (bytes/s)
system.mem_ctrl.bw_total::.cpu.inst         122782317                       # Total bandwidth to/from this memory (bytes/s)
system.mem_ctrl.bw_total::.cpu.data          23632874                       # Total bandwidth to/from this memory (bytes/s)
system.mem_ctrl.bw_total::total             146415191                       # Total bandwidth to/from this memory (bytes/s)
system.mem_ctrl.avgPriority_.cpu.inst::samples    120774.00                       # Average QoS priority value for accepted requests
system.mem_ctrl.avgPriority_.cpu.data::samples     38743.00                       # Average QoS priority value for accepted requests
system.mem_ctrl.priorityMinLatency       0.000000018750                       # per QoS priority minimum request to response latency (s)
system.mem_ctrl.priorityMaxLatency       0.000443858750                       # per QoS priority maximum request to response latency (s)
system.mem_ctrl.numReadWriteTurnArounds          1186                       # Number of turnarounds from READ to WRITE
system.mem_ctrl.numWriteReadTurnArounds          1186                       # Number of turnarounds from WRITE to READ
system.mem_ctrl.numStayReadState               301886                       # Number of times bus staying in READ state
system.mem_ctrl.numStayWriteState               17810                       # Number of times bus staying in WRITE state
system.mem_ctrl.readReqs                       140684                       # Number of read requests accepted
system.mem_ctrl.writeReqs                       20037                       # Number of write requests accepted
system.mem_ctrl.readBursts                     140684                       # Number of DRAM read bursts, including those serviced by the write queue
system.mem_ctrl.writeBursts                     20037                       # Number of DRAM write bursts, including those merged in the write queue
system.mem_ctrl.bytesReadDRAM                 8993152                       # Total number of bytes read from DRAM
system.mem_ctrl.bytesReadWrQ                    10624                       # Total number of bytes read from write queue
system.mem_ctrl.bytesWritten                  1214464                       # Total number of bytes written to DRAM
system.mem_ctrl.bytesReadSys                  1124202                       # Total read bytes from the system interface side
system.mem_ctrl.bytesWrittenSys                 27959                       # Total written bytes from the system interface side
system.mem_ctrl.servicedByWrQ                     166                       # Number of DRAM read bursts serviced by the write queue
system.mem_ctrl.mergedWrBursts                   1038                       # Number of DRAM write bursts merged with an existing one
system.mem_ctrl.neitherReadNorWriteReqs             0                       # Number of requests that are neither read nor write
system.mem_ctrl.perBankRdBursts::0             114204                       # Per bank write bursts
system.mem_ctrl.perBankRdBursts::1               1179                       # Per bank write bursts
system.mem_ctrl.perBankRdBursts::2                597                       # Per bank write bursts
system.mem_ctrl.perBankRdBursts::3                299                       # Per bank write bursts
system.mem_ctrl.perBankRdBursts::4                978                       # Per bank write bursts
system.mem_ctrl.perBankRdBursts::5                408                       # Per bank write bursts
system.mem_ctrl.perBankRdBursts::6                425                       # Per bank write bursts
system.mem_ctrl.perBankRdBursts::7                 70                       # Per bank write bursts
system.mem_ctrl.perBankRdBursts::8                472                       # Per bank write bursts
system.mem_ctrl.perBankRdBursts::9                302                       # Per bank write bursts
system.mem_ctrl.perBankRdBursts::10               416                       # Per bank write bursts
system.mem_ctrl.perBankRdBursts::11               637                       # Per bank write bursts
system.mem_ctrl.perBankRdBursts::12             19090                       # Per bank write bursts
system.mem_ctrl.perBankRdBursts::13               411                       # Per bank write bursts
system.mem_ctrl.perBankRdBursts::14               711                       # Per bank write bursts
system.mem_ctrl.perBankRdBursts::15               319                       # Per bank write bursts
system.mem_ctrl.perBankWrBursts::0               1176                       # Per bank write bursts
system.mem_ctrl.perBankWrBursts::1               1176                       # Per bank write bursts
system.mem_ctrl.perBankWrBursts::2               1176                       # Per bank write bursts
system.mem_ctrl.perBankWrBursts::3               1176                       # Per bank write bursts
system.mem_ctrl.perBankWrBursts::4               1176                       # Per bank write bursts
system.mem_ctrl.perBankWrBursts::5               1176                       # Per bank write bursts
system.mem_ctrl.perBankWrBursts::6               1176                       # Per bank write bursts
system.mem_ctrl.perBankWrBursts::7               1176                       # Per bank write bursts
system.mem_ctrl.perBankWrBursts::8               1176                       # Per bank write bursts
system.mem_ctrl.perBankWrBursts::9               1179                       # Per bank write bursts
system.mem_ctrl.perBankWrBursts::10              1235                       # Per bank write bursts
system.mem_ctrl.perBankWrBursts::11              1190                       # Per bank write bursts
system.mem_ctrl.perBankWrBursts::12              1198                       # Per bank write bursts
system.mem_ctrl.perBankWrBursts::13              1206                       # Per bank write bursts
system.mem_ctrl.perBankWrBursts::14              1203                       # Per bank write bursts
system.mem_ctrl.perBankWrBursts::15              1181                       # Per bank write bursts
system.mem_ctrl.numRdRetry                          0                       # Number of times read queue was full causing retry
system.mem_ctrl.numWrRetry                          0                       # Number of times write queue was full causing retry
system.mem_ctrl.totGap                     7869009500                       # Total gap between requests
system.mem_ctrl.readPktSize::0                     65                       # Read request sizes (log2)
system.mem_ctrl.readPktSize::1                     13                       # Read request sizes (log2)
system.mem_ctrl.readPktSize::2                    183                       # Read request sizes (log2)
system.mem_ctrl.readPktSize::3                 140423                       # Read request sizes (log2)
system.mem_ctrl.readPktSize::4                      0                       # Read request sizes (log2)
system.mem_ctrl.readPktSize::5                      0                       # Read request sizes (log2)
system.mem_ctrl.readPktSize::6                      0                       # Read request sizes (log2)
system.mem_ctrl.writePktSize::0                 18839                       # Write request sizes (log2)
system.mem_ctrl.writePktSize::1                     4                       # Write request sizes (log2)
system.mem_ctrl.writePktSize::2                   110                       # Write request sizes (log2)
system.mem_ctrl.writePktSize::3                  1084                       # Write request sizes (log2)
system.mem_ctrl.writePktSize::4                     0                       # Write request sizes (log2)
system.mem_ctrl.writePktSize::5                     0                       # Write request sizes (log2)
system.mem_ctrl.writePktSize::6                     0                       # Write request sizes (log2)
system.mem_ctrl.rdQLenPdf::0                   140515                       # What read queue length does an incoming req see
system.mem_ctrl.rdQLenPdf::1                        3                       # What read queue length does an incoming req see
system.mem_ctrl.rdQLenPdf::2                        0                       # What read queue length does an incoming req see
system.mem_ctrl.rdQLenPdf::3                        0                       # What read queue length does an incoming req see
system.mem_ctrl.rdQLenPdf::4                        0                       # What read queue length does an incoming req see
system.mem_ctrl.rdQLenPdf::5                        0                       # What read queue length does an incoming req see
system.mem_ctrl.rdQLenPdf::6                        0                       # What read queue length does an incoming req see
system.mem_ctrl.rdQLenPdf::7                        0                       # What read queue length does an incoming req see
system.mem_ctrl.rdQLenPdf::8                        0                       # What read queue length does an incoming req see
system.mem_ctrl.rdQLenPdf::9                        0                       # What read queue length does an incoming req see
system.mem_ctrl.rdQLenPdf::10                       0                       # What read queue length does an incoming req see
system.mem_ctrl.rdQLenPdf::11                       0                       # What read queue length does an incoming req see
system.mem_ctrl.rdQLenPdf::12                       0                       # What read queue length does an incoming req see
system.mem_ctrl.rdQLenPdf::13                       0                       # What read queue length does an incoming req see
system.mem_ctrl.rdQLenPdf::14                       0                       # What read queue length does an incoming req see
system.mem_ctrl.rdQLenPdf::15                       0                       # What read queue length does an incoming req see
system.mem_ctrl.rdQLenPdf::16                       0                       # What read queue length does an incoming req see
system.mem_ctrl.rdQLenPdf::17                       0                       # What read queue length does an incoming req see
system.mem_ctrl.rdQLenPdf::18                       0                       # What read queue length does an incoming req see
system.mem_ctrl.rdQLenPdf::19                       0                       # What read queue length does an incoming req see
system.mem_ctrl.rdQLenPdf::20                       0                       # What read queue length does an incoming req see
system.mem_ctrl.rdQLenPdf::21                       0                       # What read queue length does an incoming req see
system.mem_ctrl.rdQLenPdf::22                       0                       # What read queue length does an incoming req see
system.mem_ctrl.rdQLenPdf::23                       0                       # What read queue length does an incoming req see
system.mem_ctrl.rdQLenPdf::24                       0                       # What read queue length does an incoming req see
system.mem_ctrl.rdQLenPdf::25                       0                       # What read queue length does an incoming req see
system.mem_ctrl.rdQLenPdf::26                       0                       # What read queue length does an incoming req see
system.mem_ctrl.rdQLenPdf::27                       0                       # What read queue length does an incoming req see
system.mem_ctrl.rdQLenPdf::28                       0                       # What read queue length does an incoming req see
system.mem_ctrl.rdQLenPdf::29                       0                       # What read queue length does an incoming req see
system.mem_ctrl.rdQLenPdf::30                       0                       # What read queue length does an incoming req see
system.mem_ctrl.rdQLenPdf::31                       0                       # What read queue length does an incoming req see
system.mem_ctrl.wrQLenPdf::0                        1                       # What write queue length does an incoming req see
system.mem_ctrl.wrQLenPdf::1                        1                       # What write queue length does an incoming req see
system.mem_ctrl.wrQLenPdf::2                        1                       # What write queue length does an incoming req see
system.mem_ctrl.wrQLenPdf::3                        1                       # What write queue length does an incoming req see
system.mem_ctrl.wrQLenPdf::4                        1                       # What write queue length does an incoming req see
system.mem_ctrl.wrQLenPdf::5                        1                       # What write queue length does an incoming req see
system.mem_ctrl.wrQLenPdf::6                        1                       # What write queue length does an incoming req see
system.mem_ctrl.wrQLenPdf::7                        1                       # What write queue length does an incoming req see
system.mem_ctrl.wrQLenPdf::8                        1                       # What write queue length does an incoming req see
system.mem_ctrl.wrQLenPdf::9                        1                       # What write queue length does an incoming req see
system.mem_ctrl.wrQLenPdf::10                       1                       # What write queue length does an incoming req see
system.mem_ctrl.wrQLenPdf::11                       1                       # What write queue length does an incoming req see
system.mem_ctrl.wrQLenPdf::12                       1                       # What write queue length does an incoming req see
system.mem_ctrl.wrQLenPdf::13                       1                       # What write queue length does an incoming req see
system.mem_ctrl.wrQLenPdf::14                       1                       # What write queue length does an incoming req see
system.mem_ctrl.wrQLenPdf::15                       1                       # What write queue length does an incoming req see
system.mem_ctrl.wrQLenPdf::16                       1                       # What write queue length does an incoming req see
system.mem_ctrl.wrQLenPdf::17                    1187                       # What write queue length does an incoming req see
system.mem_ctrl.wrQLenPdf::18                    1187                       # What write queue length does an incoming req see
system.mem_ctrl.wrQLenPdf::19                    1187                       # What write queue length does an incoming req see
system.mem_ctrl.wrQLenPdf::20                    1187                       # What write queue length does an incoming req see
system.mem_ctrl.wrQLenPdf::21                    1187                       # What write queue length does an incoming req see
system.mem_ctrl.wrQLenPdf::22                    1187                       # What write queue length does an incoming req see
system.mem_ctrl.wrQLenPdf::23                    1186                       # What write queue length does an incoming req see
system.mem_ctrl.wrQLenPdf::24                    1186                       # What write queue length does an incoming req see
system.mem_ctrl.wrQLenPdf::25                    1186                       # What write queue length does an incoming req see
system.mem_ctrl.wrQLenPdf::26                    1186                       # What write queue length does an incoming req see
system.mem_ctrl.wrQLenPdf::27                    1186                       # What write queue length does an incoming req see
system.mem_ctrl.wrQLenPdf::28                    1186                       # What write queue length does an incoming req see
system.mem_ctrl.wrQLenPdf::29                    1186                       # What write queue length does an incoming req see
system.mem_ctrl.wrQLenPdf::30                    1186                       # What write queue length does an incoming req see
system.mem_ctrl.wrQLenPdf::31                    1186                       # What write queue length does an incoming req see
system.mem_ctrl.wrQLenPdf::32                    1186                       # What write queue length does an incoming req see
system.mem_ctrl.wrQLenPdf::33                       0                       # What write queue length does an incoming req see
system.mem_ctrl.wrQLenPdf::34                       0                       # What write queue length does an incoming req see
system.mem_ctrl.wrQLenPdf::35                       0                       # What write queue length does an incoming req see
system.mem_ctrl.wrQLenPdf::36                       0                       # What write queue length does an incoming req see
system.mem_ctrl.wrQLenPdf::37                       0                       # What write queue length does an incoming req see
system.mem_ctrl.wrQLenPdf::38                       0                       # What write queue length does an incoming req see
system.mem_ctrl.wrQLenPdf::39                       0                       # What write queue length does an incoming req see
system.mem_ctrl.wrQLenPdf::40                       0                       # What write queue length does an incoming req see
system.mem_ctrl.wrQLenPdf::41                       0                       # What write queue length does an incoming req see
system.mem_ctrl.wrQLenPdf::42                       0                       # What write queue length does an incoming req see
system.mem_ctrl.wrQLenPdf::43                       0                       # What write queue length does an incoming req see
system.mem_ctrl.wrQLenPdf::44                       0                       # What write queue length does an incoming req see
system.mem_ctrl.wrQLenPdf::45                       0                       # What write queue length does an incoming req see
system.mem_ctrl.wrQLenPdf::46                       0                       # What write queue length does an incoming req see
system.mem_ctrl.wrQLenPdf::47                       0                       # What write queue length does an incoming req see
system.mem_ctrl.wrQLenPdf::48                       0                       # What write queue length does an incoming req see
system.mem_ctrl.wrQLenPdf::49                       0                       # What write queue length does an incoming req see
system.mem_ctrl.wrQLenPdf::50                       0                       # What write queue length does an incoming req see
system.mem_ctrl.wrQLenPdf::51                       0                       # What write queue length does an incoming req see
system.mem_ctrl.wrQLenPdf::52                       0                       # What write queue length does an incoming req see
system.mem_ctrl.wrQLenPdf::53                       0                       # What write queue length does an incoming req see
system.mem_ctrl.wrQLenPdf::54                       0                       # What write queue length does an incoming req see
system.mem_ctrl.wrQLenPdf::55                       0                       # What write queue length does an incoming req see
system.mem_ctrl.wrQLenPdf::56                       0                       # What write queue length does an incoming req see
system.mem_ctrl.wrQLenPdf::57                       0                       # What write queue length does an incoming req see
system.mem_ctrl.wrQLenPdf::58                       0                       # What write queue length does an incoming req see
system.mem_ctrl.wrQLenPdf::59                       0                       # What write queue length does an incoming req see
system.mem_ctrl.wrQLenPdf::60                       0                       # What write queue length does an incoming req see
system.mem_ctrl.wrQLenPdf::61                       0                       # What write queue length does an incoming req see
system.mem_ctrl.wrQLenPdf::62                       0                       # What write queue length does an incoming req see
system.mem_ctrl.wrQLenPdf::63                       0                       # What write queue length does an incoming req see
system.mem_ctrl.bytesPerActivate::samples        13650                       # Bytes accessed per row activation
system.mem_ctrl.bytesPerActivate::mean     747.759121                       # Bytes accessed per row activation
system.mem_ctrl.bytesPerActivate::gmean    608.544343                       # Bytes accessed per row activation
system.mem_ctrl.bytesPerActivate::stdev    341.728504                       # Bytes accessed per row activation
system.mem_ctrl.bytesPerActivate::0-127           985      7.22%      7.22% # Bytes accessed per row activation
system.mem_ctrl.bytesPerActivate::128-255          317      2.32%      9.54% # Bytes accessed per row activation
system.mem_ctrl.bytesPerActivate::256-383          884      6.48%     16.01% # Bytes accessed per row activation
system.mem_ctrl.bytesPerActivate::384-511         1208      8.85%     24.86% # Bytes accessed per row activation
system.mem_ctrl.bytesPerActivate::512-639         2071     15.17%     40.04% # Bytes accessed per row activation
system.mem_ctrl.bytesPerActivate::640-767          167      1.22%     41.26% # Bytes accessed per row activation
system.mem_ctrl.bytesPerActivate::768-895          195      1.43%     42.69% # Bytes accessed per row activation
system.mem_ctrl.bytesPerActivate::896-1023          166      1.22%     43.90% # Bytes accessed per row activation
system.mem_ctrl.bytesPerActivate::1024-1151         7657     56.10%    100.00% # Bytes accessed per row activation
system.mem_ctrl.bytesPerActivate::total         13650                       # Bytes accessed per row activation
system.mem_ctrl.rdPerTurnAround::samples         1186                       # Reads before turning the bus around for writes
system.mem_ctrl.rdPerTurnAround::mean      118.440978                       # Reads before turning the bus around for writes
system.mem_ctrl.rdPerTurnAround::gmean     113.853495                       # Reads before turning the bus around for writes
system.mem_ctrl.rdPerTurnAround::stdev      83.796138                       # Reads before turning the bus around for writes
system.mem_ctrl.rdPerTurnAround::0-127           1175     99.07%     99.07% # Reads before turning the bus around for writes
system.mem_ctrl.rdPerTurnAround::128-255            1      0.08%     99.16% # Reads before turning the bus around for writes
system.mem_ctrl.rdPerTurnAround::256-383            2      0.17%     99.33% # Reads before turning the bus around for writes
system.mem_ctrl.rdPerTurnAround::512-639            3      0.25%     99.58% # Reads before turning the bus around for writes
system.mem_ctrl.rdPerTurnAround::640-767            1      0.08%     99.66% # Reads before turning the bus around for writes
system.mem_ctrl.rdPerTurnAround::768-895            1      0.08%     99.75% # Reads before turning the bus around for writes
system.mem_ctrl.rdPerTurnAround::1280-1407            2      0.17%     99.92% # Reads before turning the bus around for writes
system.mem_ctrl.rdPerTurnAround::2048-2175            1      0.08%    100.00% # Reads before turning the bus around for writes
system.mem_ctrl.rdPerTurnAround::total           1186                       # Reads before turning the bus around for writes
system.mem_ctrl.wrPerTurnAround::samples         1186                       # Writes before turning the bus around for reads
system.mem_ctrl.wrPerTurnAround::mean              16                       # Writes before turning the bus around for reads
system.mem_ctrl.wrPerTurnAround::gmean      16.000000                       # Writes before turning the bus around for reads
system.mem_ctrl.wrPerTurnAround::16              1186    100.00%    100.00% # Writes before turning the bus around for reads
system.mem_ctrl.wrPerTurnAround::total           1186                       # Writes before turning the bus around for reads
system.mem_ctrl.masterReadBytes::.cpu.inst       966192                       # Per-master bytes read from memory
system.mem_ctrl.masterReadBytes::.cpu.data       156863                       # Per-master bytes read from memory
system.mem_ctrl.masterWriteBytes::.cpu.data        20112                       # Per-master bytes write to memory
system.mem_ctrl.masterReadRate::.cpu.inst 122783333.911545708776                       # Per-master bytes read from memory rate (Bytes/sec)
system.mem_ctrl.masterReadRate::.cpu.data 19934093.955825336277                       # Per-master bytes read from memory rate (Bytes/sec)
system.mem_ctrl.masterWriteRate::.cpu.data 2555825.769235314801                       # Per-master bytes write to memory rate (Bytes/sec)
system.mem_ctrl.masterReadAccesses::.cpu.inst       120774                       # Per-master read serviced memory accesses
system.mem_ctrl.masterReadAccesses::.cpu.data        19910                       # Per-master read serviced memory accesses
system.mem_ctrl.masterWriteAccesses::.cpu.data        20037                       # Per-master write serviced memory accesses
system.mem_ctrl.masterReadTotalLat::.cpu.inst   3451558250                       # Per-master read total memory access latency
system.mem_ctrl.masterReadTotalLat::.cpu.data    558903750                       # Per-master read total memory access latency
system.mem_ctrl.masterWriteTotalLat::.cpu.data 193049557750                       # Per-master write total memory access latency
system.mem_ctrl.masterReadAvgLat::.cpu.inst     28578.65                       # Per-master read average memory access latency
system.mem_ctrl.masterReadAvgLat::.cpu.data     28071.51                       # Per-master read average memory access latency
system.mem_ctrl.masterWriteAvgLat::.cpu.data   9634653.78                       # Per-master write average memory access latency
system.mem_ctrl.totQLat                    1375749500                       # Total ticks spent queuing
system.mem_ctrl.totMemAccLat               4010462000                       # Total ticks spent from burst creation until serviced by the DRAM
system.mem_ctrl.totBusLat                   702590000                       # Total ticks spent in databus transfers
system.mem_ctrl.avgQLat                       9790.56                       # Average queueing delay per DRAM burst
system.mem_ctrl.avgBusLat                     5000.00                       # Average bus latency per DRAM burst
system.mem_ctrl.avgMemAccLat                 28540.56                       # Average memory access latency per DRAM burst
system.mem_ctrl.avgRdBW                       1142.85                       # Average DRAM read bandwidth in MiByte/s
system.mem_ctrl.avgWrBW                        154.33                       # Average achieved write bandwidth in MiByte/s
system.mem_ctrl.avgRdBWSys                     142.86                       # Average system read bandwidth in MiByte/s
system.mem_ctrl.avgWrBWSys                       3.55                       # Average system write bandwidth in MiByte/s
system.mem_ctrl.peakBW                       12800.00                       # Theoretical peak bandwidth in MiByte/s
system.mem_ctrl.busUtil                         10.13                       # Data bus utilization in percentage
system.mem_ctrl.busUtilRead                      8.93                       # Data bus utilization in percentage for reads
system.mem_ctrl.busUtilWrite                     1.21                       # Data bus utilization in percentage for writes
system.mem_ctrl.avgRdQLen                        1.00                       # Average read queue length when enqueuing
system.mem_ctrl.avgWrQLen                       25.58                       # Average write queue length when enqueuing
system.mem_ctrl.readRowHits                    130072                       # Number of row buffer hits during reads
system.mem_ctrl.writeRowHits                    15770                       # Number of row buffer hits during writes
system.mem_ctrl.readRowHitRate                  92.57                       # Row buffer hit rate for reads
system.mem_ctrl.writeRowHitRate                 83.00                       # Row buffer hit rate for writes
system.mem_ctrl.avgGap                       48960.68                       # Average gap between requests
system.mem_ctrl.pageHitRate                     91.43                       # Row buffer hit rate, read and write combined
system.mem_ctrl_0.actEnergy                  69543600                       # Energy for activate commands per rank (pJ)
system.mem_ctrl_0.preEnergy                  36959505                       # Energy for precharge commands per rank (pJ)
system.mem_ctrl_0.readEnergy                843655260                       # Energy for read commands per rank (pJ)
system.mem_ctrl_0.writeEnergy                49109760                       # Energy for write commands per rank (pJ)
system.mem_ctrl_0.refreshEnergy          620786400.000000                       # Energy for refresh commands per rank (pJ)
system.mem_ctrl_0.actBackEnergy            1550470110                       # Energy for active background per rank (pJ)
system.mem_ctrl_0.preBackEnergy              43094880                       # Energy for precharge background per rank (pJ)
system.mem_ctrl_0.actPowerDownEnergy       1907547750                       # Energy for active power-down per rank (pJ)
system.mem_ctrl_0.prePowerDownEnergy         66617280                       # Energy for precharge power-down per rank (pJ)
system.mem_ctrl_0.selfRefreshEnergy                 0                       # Energy for self refresh per rank (pJ)
system.mem_ctrl_0.totalEnergy              5187784545                       # Total energy per rank (pJ)
system.mem_ctrl_0.averagePower             659.261805                       # Core power per rank (mW)
system.mem_ctrl_0.totalIdleTime            4359245500                       # Total Idle time Per DRAM Rank
system.mem_ctrl_0.memoryStateTime::IDLE      27186000                       # Time in different power states
system.mem_ctrl_0.memoryStateTime::REF      262600000                       # Time in different power states
system.mem_ctrl_0.memoryStateTime::SREF             0                       # Time in different power states
system.mem_ctrl_0.memoryStateTime::PRE_PDN    173757750                       # Time in different power states
system.mem_ctrl_0.memoryStateTime::ACT     3220049500                       # Time in different power states
system.mem_ctrl_0.memoryStateTime::ACT_PDN   4185487750                       # Time in different power states
system.mem_ctrl_1.actEnergy                  27931680                       # Energy for activate commands per rank (pJ)
system.mem_ctrl_1.preEnergy                  14842245                       # Energy for precharge commands per rank (pJ)
system.mem_ctrl_1.readEnergy                159636120                       # Energy for read commands per rank (pJ)
system.mem_ctrl_1.writeEnergy                49944960                       # Energy for write commands per rank (pJ)
system.mem_ctrl_1.refreshEnergy          619557120.000000                       # Energy for refresh commands per rank (pJ)
system.mem_ctrl_1.actBackEnergy             587552580                       # Energy for active background per rank (pJ)
system.mem_ctrl_1.preBackEnergy              15878400                       # Energy for precharge background per rank (pJ)
system.mem_ctrl_1.actPowerDownEnergy       2899885260                       # Energy for active power-down per rank (pJ)
system.mem_ctrl_1.prePowerDownEnergy         61869120                       # Energy for precharge power-down per rank (pJ)
system.mem_ctrl_1.selfRefreshEnergy           6150420                       # Energy for self refresh per rank (pJ)
system.mem_ctrl_1.totalEnergy              4443247905                       # Total energy per rank (pJ)
system.mem_ctrl_1.averagePower             564.646355                       # Core power per rank (mW)
system.mem_ctrl_1.totalIdleTime            6539254500                       # Total Idle time Per DRAM Rank
system.mem_ctrl_1.memoryStateTime::IDLE       8877500                       # Time in different power states
system.mem_ctrl_1.memoryStateTime::REF      262080000                       # Time in different power states
system.mem_ctrl_1.memoryStateTime::SREF      18724000                       # Time in different power states
system.mem_ctrl_1.memoryStateTime::PRE_PDN    161195000                       # Time in different power states
system.mem_ctrl_1.memoryStateTime::ACT     1058578250                       # Time in different power states
system.mem_ctrl_1.memoryStateTime::ACT_PDN   6359626250                       # Time in different power states
system.pwrStateResidencyTicks::UNDEFINED   7869081000                       # Cumulative time (in ticks) in various power states
system.checker.pwrStateResidencyTicks::UNDEFINED   7869081000                       # Cumulative time (in ticks) in various power states
system.cpu.dtb.walker.pwrStateResidencyTicks::UNDEFINED   7869081000                       # Cumulative time (in ticks) in various power states
system.cpu.dtb.rdAccesses                       19910                       # TLB accesses on read requests
system.cpu.dtb.wrAccesses                       20037                       # TLB accesses on write requests
system.cpu.dtb.rdMisses                            14                       # TLB misses on read requests
system.cpu.dtb.wrMisses                          4715                       # TLB misses on write requests
system.cpu.apic_clk_domain.clock                 8000                       # Clock period in ticks
system.cpu.interrupts.pwrStateResidencyTicks::UNDEFINED   7869081000                       # Cumulative time (in ticks) in various power states
system.cpu.itb.walker.pwrStateResidencyTicks::UNDEFINED   7869081000                       # Cumulative time (in ticks) in various power states
system.cpu.itb.rdAccesses                           0                       # TLB accesses on read requests
system.cpu.itb.wrAccesses                      120774                       # TLB accesses on write requests
system.cpu.itb.rdMisses                             0                       # TLB misses on read requests
system.cpu.itb.wrMisses                            35                       # TLB misses on write requests
system.cpu.workload.numSyscalls                    12                       # Number of system calls
system.cpu.pwrStateResidencyTicks::ON      7869081000                       # Cumulative time (in ticks) in various power states
system.cpu.numCycles                         15738162                       # number of cpu cycles simulated
system.cpu.numWorkItemsStarted                      0                       # number of work items this cpu started
system.cpu.numWorkItemsCompleted                    0                       # number of work items this cpu completed
system.cpu.committedInsts                      100001                       # Number of instructions committed
system.cpu.committedOps                        181113                       # Number of ops (including micro ops) committed
system.cpu.num_int_alu_accesses                180857                       # Number of integer alu accesses
system.cpu.num_fp_alu_accesses                    484                       # Number of float alu accesses
system.cpu.num_vec_alu_accesses                     0                       # Number of vector alu accesses
system.cpu.num_func_calls                         213                       # number of times a function call or return occured
system.cpu.num_conditional_control_insts        19748                       # number of instructions that are conditional controls
system.cpu.num_int_insts                       180857                       # number of integer instructions
system.cpu.num_fp_insts                           484                       # number of float instructions
system.cpu.num_vec_insts                            0                       # number of vector instructions
system.cpu.num_int_register_reads              322871                       # number of times the integer registers were read
system.cpu.num_int_register_writes             140780                       # number of times the integer registers were written
system.cpu.num_fp_register_reads                  708                       # number of times the floating registers were read
system.cpu.num_fp_register_writes                 264                       # number of times the floating registers were written
system.cpu.num_vec_register_reads                   0                       # number of times the vector registers were read
system.cpu.num_vec_register_writes                  0                       # number of times the vector registers were written
system.cpu.num_cc_register_reads               100607                       # number of times the CC registers were read
system.cpu.num_cc_register_writes               79046                       # number of times the CC registers were written
system.cpu.num_mem_refs                         39944                       # number of memory refs
system.cpu.num_load_insts                       19907                       # Number of load instructions
system.cpu.num_store_insts                      20037                       # Number of store instructions
system.cpu.num_idle_cycles                          0                       # Number of idle cycles
system.cpu.num_busy_cycles                   15738162                       # Number of busy cycles
system.cpu.not_idle_fraction                        1                       # Percentage of non-idle cycles
system.cpu.idle_fraction                            0                       # Percentage of idle cycles
system.cpu.Branches                             20060                       # Number of branches fetched
system.cpu.op_class::No_OpClass                    32      0.02%      0.02% # Class of executed instruction
system.cpu.op_class::IntAlu                    140837     77.76%     77.78% # Class of executed instruction
system.cpu.op_class::IntMult                        8      0.00%     77.78% # Class of executed instruction
system.cpu.op_class::IntDiv                        28      0.02%     77.80% # Class of executed instruction
system.cpu.op_class::FloatAdd                       6      0.00%     77.80% # Class of executed instruction
system.cpu.op_class::FloatCmp                       0      0.00%     77.80% # Class of executed instruction
system.cpu.op_class::FloatCvt                       0      0.00%     77.80% # Class of executed instruction
system.cpu.op_class::FloatMult                      0      0.00%     77.80% # Class of executed instruction
system.cpu.op_class::FloatMultAcc                   0      0.00%     77.80% # Class of executed instruction
system.cpu.op_class::FloatDiv                       0      0.00%     77.80% # Class of executed instruction
system.cpu.op_class::FloatMisc                      0      0.00%     77.80% # Class of executed instruction
system.cpu.op_class::FloatSqrt                      0      0.00%     77.80% # Class of executed instruction
system.cpu.op_class::SimdAdd                        0      0.00%     77.80% # Class of executed instruction
system.cpu.op_class::SimdAddAcc                     0      0.00%     77.80% # Class of executed instruction
system.cpu.op_class::SimdAlu                       78      0.04%     77.85% # Class of executed instruction
system.cpu.op_class::SimdCmp                        6      0.00%     77.85% # Class of executed instruction
system.cpu.op_class::SimdCvt                       64      0.04%     77.88% # Class of executed instruction
system.cpu.op_class::SimdMisc                     110      0.06%     77.95% # Class of executed instruction
system.cpu.op_class::SimdMult                       0      0.00%     77.95% # Class of executed instruction
system.cpu.op_class::SimdMultAcc                    0      0.00%     77.95% # Class of executed instruction
system.cpu.op_class::SimdShift                      0      0.00%     77.95% # Class of executed instruction
system.cpu.op_class::SimdShiftAcc                   0      0.00%     77.95% # Class of executed instruction
system.cpu.op_class::SimdSqrt                       0      0.00%     77.95% # Class of executed instruction
system.cpu.op_class::SimdFloatAdd                   0      0.00%     77.95% # Class of executed instruction
system.cpu.op_class::SimdFloatAlu                   0      0.00%     77.95% # Class of executed instruction
system.cpu.op_class::SimdFloatCmp                   0      0.00%     77.95% # Class of executed instruction
system.cpu.op_class::SimdFloatCvt                   0      0.00%     77.95% # Class of executed instruction
system.cpu.op_class::SimdFloatDiv                   0      0.00%     77.95% # Class of executed instruction
system.cpu.op_class::SimdFloatMisc                  0      0.00%     77.95% # Class of executed instruction
system.cpu.op_class::SimdFloatMult                  0      0.00%     77.95% # Class of executed instruction
system.cpu.op_class::SimdFloatMultAcc               0      0.00%     77.95% # Class of executed instruction
system.cpu.op_class::SimdFloatSqrt                  0      0.00%     77.95% # Class of executed instruction
system.cpu.op_class::SimdAes                        0      0.00%     77.95% # Class of executed instruction
system.cpu.op_class::SimdAesMix                     0      0.00%     77.95% # Class of executed instruction
system.cpu.op_class::SimdSha1Hash                   0      0.00%     77.95% # Class of executed instruction
system.cpu.op_class::SimdSha1Hash2                  0      0.00%     77.95% # Class of executed instruction
system.cpu.op_class::SimdSha256Hash                 0      0.00%     77.95% # Class of executed instruction
system.cpu.op_class::SimdSha256Hash2                0      0.00%     77.95% # Class of executed instruction
system.cpu.op_class::SimdShaSigma2                  0      0.00%     77.95% # Class of executed instruction
system.cpu.op_class::SimdShaSigma3                  0      0.00%     77.95% # Class of executed instruction
system.cpu.op_class::MemRead                    19861     10.97%     88.91% # Class of executed instruction
system.cpu.op_class::MemWrite                   19885     10.98%     99.89% # Class of executed instruction
system.cpu.op_class::FloatMemRead                  46      0.03%     99.92% # Class of executed instruction
system.cpu.op_class::FloatMemWrite                152      0.08%    100.00% # Class of executed instruction
system.cpu.op_class::IprAccess                      0      0.00%    100.00% # Class of executed instruction
system.cpu.op_class::InstPrefetch                   0      0.00%    100.00% # Class of executed instruction
system.cpu.op_class::total                     181113                       # Class of executed instruction
system.membus.snoop_filter.tot_requests             0                       # Total number of requests made to the snoop filter.
system.membus.snoop_filter.hit_single_requests            0                       # Number of requests hitting in the snoop filter with a single holder of the requested data.
system.membus.snoop_filter.hit_multi_requests            0                       # Number of requests hitting in the snoop filter with multiple (>1) holders of the requested data.
system.membus.snoop_filter.tot_snoops               0                       # Total number of snoops made to the snoop filter.
system.membus.snoop_filter.hit_single_snoops            0                       # Number of snoops hitting in the snoop filter with a single holder of the requested data.
system.membus.snoop_filter.hit_multi_snoops            0                       # Number of snoops hitting in the snoop filter with multiple (>1) holders of the requested data.
system.membus.pwrStateResidencyTicks::UNDEFINED   7869081000                       # Cumulative time (in ticks) in various power states
system.membus.trans_dist::ReadReq              140684                       # Transaction distribution
system.membus.trans_dist::ReadResp             140683                       # Transaction distribution
system.membus.trans_dist::WriteReq              20037                       # Transaction distribution
system.membus.trans_dist::WriteResp             20037                       # Transaction distribution
system.membus.pkt_count_system.checker-master::system.mem_ctrl.port        79894                       # Packet count per connected master and slave (bytes)
system.membus.pkt_count_system.checker-master::total        79894                       # Packet count per connected master and slave (bytes)
system.membus.pkt_count_system.cpu.icache_port::system.mem_ctrl.port       241547                       # Packet count per connected master and slave (bytes)
system.membus.pkt_count_system.cpu.icache_port::total       241547                       # Packet count per connected master and slave (bytes)
system.membus.pkt_count::total                 321441                       # Packet count per connected master and slave (bytes)
system.membus.pkt_size_system.checker-master::system.mem_ctrl.port       185969                       # Cumulative packet size per connected master and slave (bytes)
system.membus.pkt_size_system.checker-master::total       185969                       # Cumulative packet size per connected master and slave (bytes)
system.membus.pkt_size_system.cpu.icache_port::system.mem_ctrl.port       966184                       # Cumulative packet size per connected master and slave (bytes)
system.membus.pkt_size_system.cpu.icache_port::total       966184                       # Cumulative packet size per connected master and slave (bytes)
system.membus.pkt_size::total                 1152153                       # Cumulative packet size per connected master and slave (bytes)
system.membus.snoops                                0                       # Total snoops (count)
system.membus.snoopTraffic                          0                       # Total snoop traffic (bytes)
system.membus.snoop_fanout::samples            160721                       # Request fanout histogram
system.membus.snoop_fanout::mean                    0                       # Request fanout histogram
system.membus.snoop_fanout::stdev                   0                       # Request fanout histogram
system.membus.snoop_fanout::underflows              0      0.00%      0.00% # Request fanout histogram
system.membus.snoop_fanout::0                  160721    100.00%    100.00% # Request fanout histogram
system.membus.snoop_fanout::1                       0      0.00%    100.00% # Request fanout histogram
system.membus.snoop_fanout::overflows               0      0.00%    100.00% # Request fanout histogram
system.membus.snoop_fanout::min_value               0                       # Request fanout histogram
system.membus.snoop_fanout::max_value               0                       # Request fanout histogram
system.membus.snoop_fanout::total              160721                       # Request fanout histogram
system.membus.reqLayer2.occupancy            90379000                       # Layer occupancy (ticks)
system.membus.reqLayer2.utilization               1.1                       # Layer utilization (%)
system.membus.respLayer0.occupancy           34464750                       # Layer occupancy (ticks)
system.membus.respLayer0.utilization              0.4                       # Layer utilization (%)
system.membus.respLayer1.occupancy          149040500                       # Layer occupancy (ticks)
system.membus.respLayer1.utilization              1.9                       # Layer utilization (%)

---------- End Simulation Statistics   ----------
