
---------- Begin Simulation Statistics ----------
sim_seconds                                  0.008647                       # Number of seconds simulated
sim_ticks                                  8646809000                       # Number of ticks simulated
final_tick                                 8646809000                       # Number of ticks from beginning of simulation (restored from checkpoints and never reset)
sim_freq                                 1000000000000                       # Frequency of simulated ticks
host_inst_rate                                  25117                       # Simulator instruction rate (inst/s)
host_op_rate                                    46061                       # Simulator op (including micro ops) rate (op/s)
host_tick_rate                             2171806529                       # Simulator tick rate (ticks/s)
host_mem_usage                                4160684                       # Number of bytes of host memory used
host_seconds                                     3.98                       # Real time elapsed on the host
sim_insts                                      100000                       # Number of instructions simulated
sim_ops                                        183387                       # Number of ops (including micro ops) simulated
system.clk_domain.voltage_domain.voltage            1                       # Voltage in Volts
system.clk_domain.clock                           500                       # Clock period in ticks
system.mem_ctrl.pwrStateResidencyTicks::UNDEFINED   8646809000                       # Cumulative time (in ticks) in various power states
system.mem_ctrl.bytes_read::.cpu.inst         1053320                       # Number of bytes read from this memory
system.mem_ctrl.bytes_read::.cpu.data          149374                       # Number of bytes read from this memory
system.mem_ctrl.bytes_read::total             1202694                       # Number of bytes read from this memory
system.mem_ctrl.bytes_inst_read::.cpu.inst      1053320                       # Number of instructions bytes read from this memory
system.mem_ctrl.bytes_inst_read::total        1053320                       # Number of instructions bytes read from this memory
system.mem_ctrl.bytes_written::.cpu.data        88618                       # Number of bytes written to this memory
system.mem_ctrl.bytes_written::total            88618                       # Number of bytes written to this memory
system.mem_ctrl.num_reads::.cpu.inst           131665                       # Number of read requests responded to by this memory
system.mem_ctrl.num_reads::.cpu.data            27182                       # Number of read requests responded to by this memory
system.mem_ctrl.num_reads::total               158847                       # Number of read requests responded to by this memory
system.mem_ctrl.num_writes::.cpu.data           13822                       # Number of write requests responded to by this memory
system.mem_ctrl.num_writes::total               13822                       # Number of write requests responded to by this memory
system.mem_ctrl.bw_read::.cpu.inst          121816036                       # Total read bandwidth from this memory (bytes/s)
system.mem_ctrl.bw_read::.cpu.data           17275043                       # Total read bandwidth from this memory (bytes/s)
system.mem_ctrl.bw_read::total              139091080                       # Total read bandwidth from this memory (bytes/s)
system.mem_ctrl.bw_inst_read::.cpu.inst     121816036                       # Instruction read bandwidth from this memory (bytes/s)
system.mem_ctrl.bw_inst_read::total         121816036                       # Instruction read bandwidth from this memory (bytes/s)
system.mem_ctrl.bw_write::.cpu.data          10248636                       # Write bandwidth from this memory (bytes/s)
system.mem_ctrl.bw_write::total              10248636                       # Write bandwidth from this memory (bytes/s)
system.mem_ctrl.bw_total::.cpu.inst         121816036                       # Total bandwidth to/from this memory (bytes/s)
system.mem_ctrl.bw_total::.cpu.data          27523680                       # Total bandwidth to/from this memory (bytes/s)
system.mem_ctrl.bw_total::total             149339716                       # Total bandwidth to/from this memory (bytes/s)
system.mem_ctrl.avgPriority_.cpu.inst::samples    131666.00                       # Average QoS priority value for accepted requests
system.mem_ctrl.avgPriority_.cpu.data::samples     26250.00                       # Average QoS priority value for accepted requests
system.mem_ctrl.priorityMinLatency       0.000000018750                       # per QoS priority minimum request to response latency (s)
system.mem_ctrl.priorityMaxLatency       0.009033273750                       # per QoS priority maximum request to response latency (s)
system.mem_ctrl.numReadWriteTurnArounds            50                       # Number of turnarounds from READ to WRITE
system.mem_ctrl.numWriteReadTurnArounds            50                       # Number of turnarounds from WRITE to READ
system.mem_ctrl.numStayReadState               330018                       # Number of times bus staying in READ state
system.mem_ctrl.numStayWriteState                 818                       # Number of times bus staying in WRITE state
system.mem_ctrl.readReqs                       158848                       # Number of read requests accepted
system.mem_ctrl.writeReqs                       13822                       # Number of write requests accepted
system.mem_ctrl.readBursts                     158848                       # Number of DRAM read bursts, including those serviced by the write queue
system.mem_ctrl.writeBursts                     13822                       # Number of DRAM write bursts, including those merged in the write queue
system.mem_ctrl.bytesReadDRAM                10052992                       # Total number of bytes read from DRAM
system.mem_ctrl.bytesReadWrQ                   113280                       # Total number of bytes read from write queue
system.mem_ctrl.bytesWritten                    52032                       # Total number of bytes written to DRAM
system.mem_ctrl.bytesReadSys                  1202702                       # Total read bytes from the system interface side
system.mem_ctrl.bytesWrittenSys                 88618                       # Total written bytes from the system interface side
system.mem_ctrl.servicedByWrQ                    1770                       # Number of DRAM read bursts serviced by the write queue
system.mem_ctrl.mergedWrBursts                  12984                       # Number of DRAM write bursts merged with an existing one
system.mem_ctrl.neitherReadNorWriteReqs             0                       # Number of requests that are neither read nor write
system.mem_ctrl.perBankRdBursts::0               2913                       # Per bank write bursts
system.mem_ctrl.perBankRdBursts::1              18563                       # Per bank write bursts
system.mem_ctrl.perBankRdBursts::2                667                       # Per bank write bursts
system.mem_ctrl.perBankRdBursts::3                572                       # Per bank write bursts
system.mem_ctrl.perBankRdBursts::4               1686                       # Per bank write bursts
system.mem_ctrl.perBankRdBursts::5               4969                       # Per bank write bursts
system.mem_ctrl.perBankRdBursts::6               4445                       # Per bank write bursts
system.mem_ctrl.perBankRdBursts::7               3975                       # Per bank write bursts
system.mem_ctrl.perBankRdBursts::8              11952                       # Per bank write bursts
system.mem_ctrl.perBankRdBursts::9              65907                       # Per bank write bursts
system.mem_ctrl.perBankRdBursts::10             28624                       # Per bank write bursts
system.mem_ctrl.perBankRdBursts::11              2570                       # Per bank write bursts
system.mem_ctrl.perBankRdBursts::12              4916                       # Per bank write bursts
system.mem_ctrl.perBankRdBursts::13              2144                       # Per bank write bursts
system.mem_ctrl.perBankRdBursts::14               126                       # Per bank write bursts
system.mem_ctrl.perBankRdBursts::15              3049                       # Per bank write bursts
system.mem_ctrl.perBankWrBursts::0                  2                       # Per bank write bursts
system.mem_ctrl.perBankWrBursts::1                100                       # Per bank write bursts
system.mem_ctrl.perBankWrBursts::2                117                       # Per bank write bursts
system.mem_ctrl.perBankWrBursts::3                 71                       # Per bank write bursts
system.mem_ctrl.perBankWrBursts::4                  0                       # Per bank write bursts
system.mem_ctrl.perBankWrBursts::5                 28                       # Per bank write bursts
system.mem_ctrl.perBankWrBursts::6                149                       # Per bank write bursts
system.mem_ctrl.perBankWrBursts::7                 58                       # Per bank write bursts
system.mem_ctrl.perBankWrBursts::8                272                       # Per bank write bursts
system.mem_ctrl.perBankWrBursts::9                  9                       # Per bank write bursts
system.mem_ctrl.perBankWrBursts::10                 7                       # Per bank write bursts
system.mem_ctrl.perBankWrBursts::11                 0                       # Per bank write bursts
system.mem_ctrl.perBankWrBursts::12                 0                       # Per bank write bursts
system.mem_ctrl.perBankWrBursts::13                 0                       # Per bank write bursts
system.mem_ctrl.perBankWrBursts::14                 0                       # Per bank write bursts
system.mem_ctrl.perBankWrBursts::15                 0                       # Per bank write bursts
system.mem_ctrl.numRdRetry                          0                       # Number of times read queue was full causing retry
system.mem_ctrl.numWrRetry                          0                       # Number of times write queue was full causing retry
system.mem_ctrl.totGap                     8646737500                       # Total gap between requests
system.mem_ctrl.readPktSize::0                   7215                       # Read request sizes (log2)
system.mem_ctrl.readPktSize::1                    508                       # Read request sizes (log2)
system.mem_ctrl.readPktSize::2                   3631                       # Read request sizes (log2)
system.mem_ctrl.readPktSize::3                 147494                       # Read request sizes (log2)
system.mem_ctrl.readPktSize::4                      0                       # Read request sizes (log2)
system.mem_ctrl.readPktSize::5                      0                       # Read request sizes (log2)
system.mem_ctrl.readPktSize::6                      0                       # Read request sizes (log2)
system.mem_ctrl.writePktSize::0                  2211                       # Write request sizes (log2)
system.mem_ctrl.writePktSize::1                    29                       # Write request sizes (log2)
system.mem_ctrl.writePktSize::2                  1576                       # Write request sizes (log2)
system.mem_ctrl.writePktSize::3                 10006                       # Write request sizes (log2)
system.mem_ctrl.writePktSize::4                     0                       # Write request sizes (log2)
system.mem_ctrl.writePktSize::5                     0                       # Write request sizes (log2)
system.mem_ctrl.writePktSize::6                     0                       # Write request sizes (log2)
system.mem_ctrl.rdQLenPdf::0                   157076                       # What read queue length does an incoming req see
system.mem_ctrl.rdQLenPdf::1                        2                       # What read queue length does an incoming req see
system.mem_ctrl.rdQLenPdf::2                        0                       # What read queue length does an incoming req see
system.mem_ctrl.rdQLenPdf::3                        0                       # What read queue length does an incoming req see
system.mem_ctrl.rdQLenPdf::4                        0                       # What read queue length does an incoming req see
system.mem_ctrl.rdQLenPdf::5                        0                       # What read queue length does an incoming req see
system.mem_ctrl.rdQLenPdf::6                        0                       # What read queue length does an incoming req see
system.mem_ctrl.rdQLenPdf::7                        0                       # What read queue length does an incoming req see
system.mem_ctrl.rdQLenPdf::8                        0                       # What read queue length does an incoming req see
system.mem_ctrl.rdQLenPdf::9                        0                       # What read queue length does an incoming req see
system.mem_ctrl.rdQLenPdf::10                       0                       # What read queue length does an incoming req see
system.mem_ctrl.rdQLenPdf::11                       0                       # What read queue length does an incoming req see
system.mem_ctrl.rdQLenPdf::12                       0                       # What read queue length does an incoming req see
system.mem_ctrl.rdQLenPdf::13                       0                       # What read queue length does an incoming req see
system.mem_ctrl.rdQLenPdf::14                       0                       # What read queue length does an incoming req see
system.mem_ctrl.rdQLenPdf::15                       0                       # What read queue length does an incoming req see
system.mem_ctrl.rdQLenPdf::16                       0                       # What read queue length does an incoming req see
system.mem_ctrl.rdQLenPdf::17                       0                       # What read queue length does an incoming req see
system.mem_ctrl.rdQLenPdf::18                       0                       # What read queue length does an incoming req see
system.mem_ctrl.rdQLenPdf::19                       0                       # What read queue length does an incoming req see
system.mem_ctrl.rdQLenPdf::20                       0                       # What read queue length does an incoming req see
system.mem_ctrl.rdQLenPdf::21                       0                       # What read queue length does an incoming req see
system.mem_ctrl.rdQLenPdf::22                       0                       # What read queue length does an incoming req see
system.mem_ctrl.rdQLenPdf::23                       0                       # What read queue length does an incoming req see
system.mem_ctrl.rdQLenPdf::24                       0                       # What read queue length does an incoming req see
system.mem_ctrl.rdQLenPdf::25                       0                       # What read queue length does an incoming req see
system.mem_ctrl.rdQLenPdf::26                       0                       # What read queue length does an incoming req see
system.mem_ctrl.rdQLenPdf::27                       0                       # What read queue length does an incoming req see
system.mem_ctrl.rdQLenPdf::28                       0                       # What read queue length does an incoming req see
system.mem_ctrl.rdQLenPdf::29                       0                       # What read queue length does an incoming req see
system.mem_ctrl.rdQLenPdf::30                       0                       # What read queue length does an incoming req see
system.mem_ctrl.rdQLenPdf::31                       0                       # What read queue length does an incoming req see
system.mem_ctrl.wrQLenPdf::0                        1                       # What write queue length does an incoming req see
system.mem_ctrl.wrQLenPdf::1                        1                       # What write queue length does an incoming req see
system.mem_ctrl.wrQLenPdf::2                        1                       # What write queue length does an incoming req see
system.mem_ctrl.wrQLenPdf::3                        1                       # What write queue length does an incoming req see
system.mem_ctrl.wrQLenPdf::4                        1                       # What write queue length does an incoming req see
system.mem_ctrl.wrQLenPdf::5                        1                       # What write queue length does an incoming req see
system.mem_ctrl.wrQLenPdf::6                        1                       # What write queue length does an incoming req see
system.mem_ctrl.wrQLenPdf::7                        1                       # What write queue length does an incoming req see
system.mem_ctrl.wrQLenPdf::8                        1                       # What write queue length does an incoming req see
system.mem_ctrl.wrQLenPdf::9                        1                       # What write queue length does an incoming req see
system.mem_ctrl.wrQLenPdf::10                       1                       # What write queue length does an incoming req see
system.mem_ctrl.wrQLenPdf::11                       1                       # What write queue length does an incoming req see
system.mem_ctrl.wrQLenPdf::12                       1                       # What write queue length does an incoming req see
system.mem_ctrl.wrQLenPdf::13                       1                       # What write queue length does an incoming req see
system.mem_ctrl.wrQLenPdf::14                       1                       # What write queue length does an incoming req see
system.mem_ctrl.wrQLenPdf::15                       6                       # What write queue length does an incoming req see
system.mem_ctrl.wrQLenPdf::16                       6                       # What write queue length does an incoming req see
system.mem_ctrl.wrQLenPdf::17                      52                       # What write queue length does an incoming req see
system.mem_ctrl.wrQLenPdf::18                      51                       # What write queue length does an incoming req see
system.mem_ctrl.wrQLenPdf::19                      52                       # What write queue length does an incoming req see
system.mem_ctrl.wrQLenPdf::20                      51                       # What write queue length does an incoming req see
system.mem_ctrl.wrQLenPdf::21                      51                       # What write queue length does an incoming req see
system.mem_ctrl.wrQLenPdf::22                      51                       # What write queue length does an incoming req see
system.mem_ctrl.wrQLenPdf::23                      51                       # What write queue length does an incoming req see
system.mem_ctrl.wrQLenPdf::24                      51                       # What write queue length does an incoming req see
system.mem_ctrl.wrQLenPdf::25                      51                       # What write queue length does an incoming req see
system.mem_ctrl.wrQLenPdf::26                      50                       # What write queue length does an incoming req see
system.mem_ctrl.wrQLenPdf::27                      50                       # What write queue length does an incoming req see
system.mem_ctrl.wrQLenPdf::28                      50                       # What write queue length does an incoming req see
system.mem_ctrl.wrQLenPdf::29                      50                       # What write queue length does an incoming req see
system.mem_ctrl.wrQLenPdf::30                      50                       # What write queue length does an incoming req see
system.mem_ctrl.wrQLenPdf::31                      50                       # What write queue length does an incoming req see
system.mem_ctrl.wrQLenPdf::32                      50                       # What write queue length does an incoming req see
system.mem_ctrl.wrQLenPdf::33                       0                       # What write queue length does an incoming req see
system.mem_ctrl.wrQLenPdf::34                       0                       # What write queue length does an incoming req see
system.mem_ctrl.wrQLenPdf::35                       0                       # What write queue length does an incoming req see
system.mem_ctrl.wrQLenPdf::36                       0                       # What write queue length does an incoming req see
system.mem_ctrl.wrQLenPdf::37                       0                       # What write queue length does an incoming req see
system.mem_ctrl.wrQLenPdf::38                       0                       # What write queue length does an incoming req see
system.mem_ctrl.wrQLenPdf::39                       0                       # What write queue length does an incoming req see
system.mem_ctrl.wrQLenPdf::40                       0                       # What write queue length does an incoming req see
system.mem_ctrl.wrQLenPdf::41                       0                       # What write queue length does an incoming req see
system.mem_ctrl.wrQLenPdf::42                       0                       # What write queue length does an incoming req see
system.mem_ctrl.wrQLenPdf::43                       0                       # What write queue length does an incoming req see
system.mem_ctrl.wrQLenPdf::44                       0                       # What write queue length does an incoming req see
system.mem_ctrl.wrQLenPdf::45                       0                       # What write queue length does an incoming req see
system.mem_ctrl.wrQLenPdf::46                       0                       # What write queue length does an incoming req see
system.mem_ctrl.wrQLenPdf::47                       0                       # What write queue length does an incoming req see
system.mem_ctrl.wrQLenPdf::48                       0                       # What write queue length does an incoming req see
system.mem_ctrl.wrQLenPdf::49                       0                       # What write queue length does an incoming req see
system.mem_ctrl.wrQLenPdf::50                       0                       # What write queue length does an incoming req see
system.mem_ctrl.wrQLenPdf::51                       0                       # What write queue length does an incoming req see
system.mem_ctrl.wrQLenPdf::52                       0                       # What write queue length does an incoming req see
system.mem_ctrl.wrQLenPdf::53                       0                       # What write queue length does an incoming req see
system.mem_ctrl.wrQLenPdf::54                       0                       # What write queue length does an incoming req see
system.mem_ctrl.wrQLenPdf::55                       0                       # What write queue length does an incoming req see
system.mem_ctrl.wrQLenPdf::56                       0                       # What write queue length does an incoming req see
system.mem_ctrl.wrQLenPdf::57                       0                       # What write queue length does an incoming req see
system.mem_ctrl.wrQLenPdf::58                       0                       # What write queue length does an incoming req see
system.mem_ctrl.wrQLenPdf::59                       0                       # What write queue length does an incoming req see
system.mem_ctrl.wrQLenPdf::60                       0                       # What write queue length does an incoming req see
system.mem_ctrl.wrQLenPdf::61                       0                       # What write queue length does an incoming req see
system.mem_ctrl.wrQLenPdf::62                       0                       # What write queue length does an incoming req see
system.mem_ctrl.wrQLenPdf::63                       0                       # What write queue length does an incoming req see
system.mem_ctrl.bytesPerActivate::samples        15552                       # Bytes accessed per row activation
system.mem_ctrl.bytesPerActivate::mean     649.728395                       # Bytes accessed per row activation
system.mem_ctrl.bytesPerActivate::gmean    436.286359                       # Bytes accessed per row activation
system.mem_ctrl.bytesPerActivate::stdev    407.105651                       # Bytes accessed per row activation
system.mem_ctrl.bytesPerActivate::0-127          2621     16.85%     16.85% # Bytes accessed per row activation
system.mem_ctrl.bytesPerActivate::128-255         1753     11.27%     28.12% # Bytes accessed per row activation
system.mem_ctrl.bytesPerActivate::256-383          845      5.43%     33.56% # Bytes accessed per row activation
system.mem_ctrl.bytesPerActivate::384-511          649      4.17%     37.73% # Bytes accessed per row activation
system.mem_ctrl.bytesPerActivate::512-639          769      4.94%     42.68% # Bytes accessed per row activation
system.mem_ctrl.bytesPerActivate::640-767          668      4.30%     46.97% # Bytes accessed per row activation
system.mem_ctrl.bytesPerActivate::768-895          456      2.93%     49.90% # Bytes accessed per row activation
system.mem_ctrl.bytesPerActivate::896-1023          367      2.36%     52.26% # Bytes accessed per row activation
system.mem_ctrl.bytesPerActivate::1024-1151         7424     47.74%    100.00% # Bytes accessed per row activation
system.mem_ctrl.bytesPerActivate::total         15552                       # Bytes accessed per row activation
system.mem_ctrl.rdPerTurnAround::samples           50                       # Reads before turning the bus around for writes
system.mem_ctrl.rdPerTurnAround::mean     3137.480000                       # Reads before turning the bus around for writes
system.mem_ctrl.rdPerTurnAround::stdev   10424.407929                       # Reads before turning the bus around for writes
system.mem_ctrl.rdPerTurnAround::0-4095            44     88.00%     88.00% # Reads before turning the bus around for writes
system.mem_ctrl.rdPerTurnAround::4096-8191            3      6.00%     94.00% # Reads before turning the bus around for writes
system.mem_ctrl.rdPerTurnAround::8192-12287            2      4.00%     98.00% # Reads before turning the bus around for writes
system.mem_ctrl.rdPerTurnAround::69632-73727            1      2.00%    100.00% # Reads before turning the bus around for writes
system.mem_ctrl.rdPerTurnAround::total             50                       # Reads before turning the bus around for writes
system.mem_ctrl.wrPerTurnAround::samples           50                       # Writes before turning the bus around for reads
system.mem_ctrl.wrPerTurnAround::mean       16.260000                       # Writes before turning the bus around for reads
system.mem_ctrl.wrPerTurnAround::gmean      16.241271                       # Writes before turning the bus around for reads
system.mem_ctrl.wrPerTurnAround::stdev       0.828325                       # Writes before turning the bus around for reads
system.mem_ctrl.wrPerTurnAround::16                45     90.00%     90.00% # Writes before turning the bus around for reads
system.mem_ctrl.wrPerTurnAround::18                 3      6.00%     96.00% # Writes before turning the bus around for reads
system.mem_ctrl.wrPerTurnAround::19                 1      2.00%     98.00% # Writes before turning the bus around for reads
system.mem_ctrl.wrPerTurnAround::20                 1      2.00%    100.00% # Writes before turning the bus around for reads
system.mem_ctrl.wrPerTurnAround::total             50                       # Writes before turning the bus around for reads
system.mem_ctrl.masterReadBytes::.cpu.inst      1053328                       # Per-master bytes read from memory
system.mem_ctrl.masterReadBytes::.cpu.data       135597                       # Per-master bytes read from memory
system.mem_ctrl.masterWriteBytes::.cpu.data         5792                       # Per-master bytes write to memory
system.mem_ctrl.masterReadRate::.cpu.inst 121816961.609768405557                       # Per-master bytes read from memory rate (Bytes/sec)
system.mem_ctrl.masterReadRate::.cpu.data 15681738.777854351327                       # Per-master bytes read from memory rate (Bytes/sec)
system.mem_ctrl.masterWriteRate::.cpu.data 669842.481775646913                       # Per-master bytes write to memory rate (Bytes/sec)
system.mem_ctrl.masterReadAccesses::.cpu.inst       131666                       # Per-master read serviced memory accesses
system.mem_ctrl.masterReadAccesses::.cpu.data        27182                       # Per-master read serviced memory accesses
system.mem_ctrl.masterWriteAccesses::.cpu.data        13822                       # Per-master write serviced memory accesses
system.mem_ctrl.masterReadTotalLat::.cpu.inst   3629540250                       # Per-master read total memory access latency
system.mem_ctrl.masterReadTotalLat::.cpu.data    813473750                       # Per-master read total memory access latency
system.mem_ctrl.masterWriteTotalLat::.cpu.data 240456863750                       # Per-master write total memory access latency
system.mem_ctrl.masterReadAvgLat::.cpu.inst     27566.27                       # Per-master read average memory access latency
system.mem_ctrl.masterReadAvgLat::.cpu.data     29926.93                       # Per-master read average memory access latency
system.mem_ctrl.masterWriteAvgLat::.cpu.data  17396676.58                       # Per-master write average memory access latency
system.mem_ctrl.totQLat                    1497801500                       # Total ticks spent queuing
system.mem_ctrl.totMemAccLat               4443014000                       # Total ticks spent from burst creation until serviced by the DRAM
system.mem_ctrl.totBusLat                   785390000                       # Total ticks spent in databus transfers
system.mem_ctrl.avgQLat                       9535.40                       # Average queueing delay per DRAM burst
system.mem_ctrl.avgBusLat                     5000.00                       # Average bus latency per DRAM burst
system.mem_ctrl.avgMemAccLat                 28285.40                       # Average memory access latency per DRAM burst
system.mem_ctrl.avgRdBW                       1162.62                       # Average DRAM read bandwidth in MiByte/s
system.mem_ctrl.avgWrBW                          6.02                       # Average achieved write bandwidth in MiByte/s
system.mem_ctrl.avgRdBWSys                     139.09                       # Average system read bandwidth in MiByte/s
system.mem_ctrl.avgWrBWSys                      10.25                       # Average system write bandwidth in MiByte/s
system.mem_ctrl.peakBW                       12800.00                       # Theoretical peak bandwidth in MiByte/s
system.mem_ctrl.busUtil                          9.13                       # Data bus utilization in percentage
system.mem_ctrl.busUtilRead                      9.08                       # Data bus utilization in percentage for reads
system.mem_ctrl.busUtilWrite                     0.05                       # Data bus utilization in percentage for writes
system.mem_ctrl.avgRdQLen                        1.00                       # Average read queue length when enqueuing
system.mem_ctrl.avgWrQLen                       28.41                       # Average write queue length when enqueuing
system.mem_ctrl.readRowHits                    141595                       # Number of row buffer hits during reads
system.mem_ctrl.writeRowHits                      742                       # Number of row buffer hits during writes
system.mem_ctrl.readRowHitRate                  90.14                       # Row buffer hit rate for reads
system.mem_ctrl.writeRowHitRate                 88.54                       # Row buffer hit rate for writes
system.mem_ctrl.avgGap                       50076.66                       # Average gap between requests
system.mem_ctrl.pageHitRate                     90.13                       # Row buffer hit rate, read and write combined
system.mem_ctrl_0.actEnergy                  37999080                       # Energy for activate commands per rank (pJ)
system.mem_ctrl_0.preEnergy                  20193195                       # Energy for precharge commands per rank (pJ)
system.mem_ctrl_0.readEnergy                269820600                       # Energy for read commands per rank (pJ)
system.mem_ctrl_0.writeEnergy                 2740500                       # Energy for write commands per rank (pJ)
system.mem_ctrl_0.refreshEnergy          650903760.000000                       # Energy for refresh commands per rank (pJ)
system.mem_ctrl_0.actBackEnergy             625903320                       # Energy for active background per rank (pJ)
system.mem_ctrl_0.preBackEnergy              18945120                       # Energy for precharge background per rank (pJ)
system.mem_ctrl_0.actPowerDownEnergy       2710389330                       # Energy for active power-down per rank (pJ)
system.mem_ctrl_0.prePowerDownEnergy        340846080                       # Energy for precharge power-down per rank (pJ)
system.mem_ctrl_0.selfRefreshEnergy         109884120                       # Energy for self refresh per rank (pJ)
system.mem_ctrl_0.totalEnergy              4787890035                       # Total energy per rank (pJ)
system.mem_ctrl_0.averagePower             553.717566                       # Core power per rank (mW)
system.mem_ctrl_0.totalIdleTime            7223593250                       # Total Idle time Per DRAM Rank
system.mem_ctrl_0.memoryStateTime::IDLE      14412000                       # Time in different power states
system.mem_ctrl_0.memoryStateTime::REF      275340000                       # Time in different power states
system.mem_ctrl_0.memoryStateTime::SREF     392834250                       # Time in different power states
system.mem_ctrl_0.memoryStateTime::PRE_PDN    887434500                       # Time in different power states
system.mem_ctrl_0.memoryStateTime::ACT     1133175250                       # Time in different power states
system.mem_ctrl_0.memoryStateTime::ACT_PDN   5943613000                       # Time in different power states
system.mem_ctrl_1.actEnergy                  73056480                       # Energy for activate commands per rank (pJ)
system.mem_ctrl_1.preEnergy                  38826645                       # Energy for precharge commands per rank (pJ)
system.mem_ctrl_1.readEnergy                851709180                       # Energy for read commands per rank (pJ)
system.mem_ctrl_1.writeEnergy                 1503360                       # Energy for write commands per rank (pJ)
system.mem_ctrl_1.refreshEnergy          674874720.000000                       # Energy for refresh commands per rank (pJ)
system.mem_ctrl_1.actBackEnergy            1604907390                       # Energy for active background per rank (pJ)
system.mem_ctrl_1.preBackEnergy              27951360                       # Energy for precharge background per rank (pJ)
system.mem_ctrl_1.actPowerDownEnergy       2064712140                       # Energy for active power-down per rank (pJ)
system.mem_ctrl_1.prePowerDownEnergy        167065920                       # Energy for precharge power-down per rank (pJ)
system.mem_ctrl_1.selfRefreshEnergy          30253500                       # Energy for self refresh per rank (pJ)
system.mem_ctrl_1.totalEnergy              5535124065                       # Total energy per rank (pJ)
system.mem_ctrl_1.averagePower             640.134883                       # Core power per rank (mW)
system.mem_ctrl_1.totalIdleTime            5054914250                       # Total Idle time Per DRAM Rank
system.mem_ctrl_1.memoryStateTime::IDLE      23662250                       # Time in different power states
system.mem_ctrl_1.memoryStateTime::REF      285480000                       # Time in different power states
system.mem_ctrl_1.memoryStateTime::SREF      90957500                       # Time in different power states
system.mem_ctrl_1.memoryStateTime::PRE_PDN    435067250                       # Time in different power states
system.mem_ctrl_1.memoryStateTime::ACT     3282752500                       # Time in different power states
system.mem_ctrl_1.memoryStateTime::ACT_PDN   4528889500                       # Time in different power states
system.pwrStateResidencyTicks::UNDEFINED   8646809000                       # Cumulative time (in ticks) in various power states
system.checker.pwrStateResidencyTicks::UNDEFINED   8646809000                       # Cumulative time (in ticks) in various power states
system.cpu.dtb.walker.pwrStateResidencyTicks::UNDEFINED   8646809000                       # Cumulative time (in ticks) in various power states
system.cpu.dtb.rdAccesses                       27182                       # TLB accesses on read requests
system.cpu.dtb.wrAccesses                       13822                       # TLB accesses on write requests
system.cpu.dtb.rdMisses                            97                       # TLB misses on read requests
system.cpu.dtb.wrMisses                            17                       # TLB misses on write requests
system.cpu.apic_clk_domain.clock                 8000                       # Clock period in ticks
system.cpu.interrupts.pwrStateResidencyTicks::UNDEFINED   8646809000                       # Cumulative time (in ticks) in various power states
system.cpu.itb.walker.pwrStateResidencyTicks::UNDEFINED   8646809000                       # Cumulative time (in ticks) in various power states
system.cpu.itb.rdAccesses                           0                       # TLB accesses on read requests
system.cpu.itb.wrAccesses                      131666                       # TLB accesses on write requests
system.cpu.itb.rdMisses                             0                       # TLB misses on read requests
system.cpu.itb.wrMisses                            89                       # TLB misses on write requests
system.cpu.workload.numSyscalls                    32                       # Number of system calls
system.cpu.pwrStateResidencyTicks::ON      8646809000                       # Cumulative time (in ticks) in various power states
system.cpu.numCycles                         17293618                       # number of cpu cycles simulated
system.cpu.numWorkItemsStarted                      0                       # number of work items this cpu started
system.cpu.numWorkItemsCompleted                    0                       # number of work items this cpu completed
system.cpu.committedInsts                      100000                       # Number of instructions committed
system.cpu.committedOps                        183387                       # Number of ops (including micro ops) committed
system.cpu.num_int_alu_accesses                180059                       # Number of integer alu accesses
system.cpu.num_fp_alu_accesses                    107                       # Number of float alu accesses
system.cpu.num_vec_alu_accesses                     0                       # Number of vector alu accesses
system.cpu.num_func_calls                        1783                       # number of times a function call or return occured
system.cpu.num_conditional_control_insts        19628                       # number of instructions that are conditional controls
system.cpu.num_int_insts                       180059                       # number of integer instructions
system.cpu.num_fp_insts                           107                       # number of float instructions
system.cpu.num_vec_insts                            0                       # number of vector instructions
system.cpu.num_int_register_reads              371874                       # number of times the integer registers were read
system.cpu.num_int_register_writes             149824                       # number of times the integer registers were written
system.cpu.num_fp_register_reads                  147                       # number of times the floating registers were read
system.cpu.num_fp_register_writes                  43                       # number of times the floating registers were written
system.cpu.num_vec_register_reads                   0                       # number of times the vector registers were read
system.cpu.num_vec_register_writes                  0                       # number of times the vector registers were written
system.cpu.num_cc_register_reads               123331                       # number of times the CC registers were read
system.cpu.num_cc_register_writes               76692                       # number of times the CC registers were written
system.cpu.num_mem_refs                         40999                       # number of memory refs
system.cpu.num_load_insts                       27180                       # Number of load instructions
system.cpu.num_store_insts                      13819                       # Number of store instructions
system.cpu.num_idle_cycles                          0                       # Number of idle cycles
system.cpu.num_busy_cycles                   17293618                       # Number of busy cycles
system.cpu.not_idle_fraction                        1                       # Percentage of non-idle cycles
system.cpu.idle_fraction                            0                       # Percentage of idle cycles
system.cpu.Branches                             22009                       # Number of branches fetched
system.cpu.op_class::No_OpClass                  3283      1.79%      1.79% # Class of executed instruction
system.cpu.op_class::IntAlu                    137597     75.03%     76.82% # Class of executed instruction
system.cpu.op_class::IntMult                       24      0.01%     76.83% # Class of executed instruction
system.cpu.op_class::IntDiv                      1426      0.78%     77.61% # Class of executed instruction
system.cpu.op_class::FloatAdd                       1      0.00%     77.61% # Class of executed instruction
system.cpu.op_class::FloatCmp                       0      0.00%     77.61% # Class of executed instruction
system.cpu.op_class::FloatCvt                      16      0.01%     77.62% # Class of executed instruction
system.cpu.op_class::FloatMult                      0      0.00%     77.62% # Class of executed instruction
system.cpu.op_class::FloatMultAcc                   0      0.00%     77.62% # Class of executed instruction
system.cpu.op_class::FloatDiv                       0      0.00%     77.62% # Class of executed instruction
system.cpu.op_class::FloatMisc                      0      0.00%     77.62% # Class of executed instruction
system.cpu.op_class::FloatSqrt                      0      0.00%     77.62% # Class of executed instruction
system.cpu.op_class::SimdAdd                        0      0.00%     77.62% # Class of executed instruction
system.cpu.op_class::SimdAddAcc                     0      0.00%     77.62% # Class of executed instruction
system.cpu.op_class::SimdAlu                        2      0.00%     77.62% # Class of executed instruction
system.cpu.op_class::SimdCmp                        0      0.00%     77.62% # Class of executed instruction
system.cpu.op_class::SimdCvt                       16      0.01%     77.63% # Class of executed instruction
system.cpu.op_class::SimdMisc                      23      0.01%     77.64% # Class of executed instruction
system.cpu.op_class::SimdMult                       0      0.00%     77.64% # Class of executed instruction
system.cpu.op_class::SimdMultAcc                    0      0.00%     77.64% # Class of executed instruction
system.cpu.op_class::SimdShift                      0      0.00%     77.64% # Class of executed instruction
system.cpu.op_class::SimdShiftAcc                   0      0.00%     77.64% # Class of executed instruction
system.cpu.op_class::SimdSqrt                       0      0.00%     77.64% # Class of executed instruction
system.cpu.op_class::SimdFloatAdd                   0      0.00%     77.64% # Class of executed instruction
system.cpu.op_class::SimdFloatAlu                   0      0.00%     77.64% # Class of executed instruction
system.cpu.op_class::SimdFloatCmp                   0      0.00%     77.64% # Class of executed instruction
system.cpu.op_class::SimdFloatCvt                   0      0.00%     77.64% # Class of executed instruction
system.cpu.op_class::SimdFloatDiv                   0      0.00%     77.64% # Class of executed instruction
system.cpu.op_class::SimdFloatMisc                  0      0.00%     77.64% # Class of executed instruction
system.cpu.op_class::SimdFloatMult                  0      0.00%     77.64% # Class of executed instruction
system.cpu.op_class::SimdFloatMultAcc               0      0.00%     77.64% # Class of executed instruction
system.cpu.op_class::SimdFloatSqrt                  0      0.00%     77.64% # Class of executed instruction
system.cpu.op_class::SimdAes                        0      0.00%     77.64% # Class of executed instruction
system.cpu.op_class::SimdAesMix                     0      0.00%     77.64% # Class of executed instruction
system.cpu.op_class::SimdSha1Hash                   0      0.00%     77.64% # Class of executed instruction
system.cpu.op_class::SimdSha1Hash2                  0      0.00%     77.64% # Class of executed instruction
system.cpu.op_class::SimdSha256Hash                 0      0.00%     77.64% # Class of executed instruction
system.cpu.op_class::SimdSha256Hash2                0      0.00%     77.64% # Class of executed instruction
system.cpu.op_class::SimdShaSigma2                  0      0.00%     77.64% # Class of executed instruction
system.cpu.op_class::SimdShaSigma3                  0      0.00%     77.64% # Class of executed instruction
system.cpu.op_class::MemRead                    27172     14.82%     92.46% # Class of executed instruction
system.cpu.op_class::MemWrite                   13787      7.52%     99.98% # Class of executed instruction
system.cpu.op_class::FloatMemRead                   8      0.00%     99.98% # Class of executed instruction
system.cpu.op_class::FloatMemWrite                 32      0.02%    100.00% # Class of executed instruction
system.cpu.op_class::IprAccess                      0      0.00%    100.00% # Class of executed instruction
system.cpu.op_class::InstPrefetch                   0      0.00%    100.00% # Class of executed instruction
system.cpu.op_class::total                     183387                       # Class of executed instruction
system.membus.snoop_filter.tot_requests             0                       # Total number of requests made to the snoop filter.
system.membus.snoop_filter.hit_single_requests            0                       # Number of requests hitting in the snoop filter with a single holder of the requested data.
system.membus.snoop_filter.hit_multi_requests            0                       # Number of requests hitting in the snoop filter with multiple (>1) holders of the requested data.
system.membus.snoop_filter.tot_snoops               0                       # Total number of snoops made to the snoop filter.
system.membus.snoop_filter.hit_single_snoops            0                       # Number of snoops hitting in the snoop filter with a single holder of the requested data.
system.membus.snoop_filter.hit_multi_snoops            0                       # Number of snoops hitting in the snoop filter with multiple (>1) holders of the requested data.
system.membus.pwrStateResidencyTicks::UNDEFINED   8646809000                       # Cumulative time (in ticks) in various power states
system.membus.trans_dist::ReadReq              158848                       # Transaction distribution
system.membus.trans_dist::ReadResp             158847                       # Transaction distribution
system.membus.trans_dist::WriteReq              13822                       # Transaction distribution
system.membus.trans_dist::WriteResp             13822                       # Transaction distribution
system.membus.pkt_count_system.checker-master::system.mem_ctrl.port        82008                       # Packet count per connected master and slave (bytes)
system.membus.pkt_count_system.checker-master::total        82008                       # Packet count per connected master and slave (bytes)
system.membus.pkt_count_system.cpu.icache_port::system.mem_ctrl.port       263331                       # Packet count per connected master and slave (bytes)
system.membus.pkt_count_system.cpu.icache_port::total       263331                       # Packet count per connected master and slave (bytes)
system.membus.pkt_count::total                 345339                       # Packet count per connected master and slave (bytes)
system.membus.pkt_size_system.checker-master::system.mem_ctrl.port       237992                       # Cumulative packet size per connected master and slave (bytes)
system.membus.pkt_size_system.checker-master::total       237992                       # Cumulative packet size per connected master and slave (bytes)
system.membus.pkt_size_system.cpu.icache_port::system.mem_ctrl.port      1053320                       # Cumulative packet size per connected master and slave (bytes)
system.membus.pkt_size_system.cpu.icache_port::total      1053320                       # Cumulative packet size per connected master and slave (bytes)
system.membus.pkt_size::total                 1291312                       # Cumulative packet size per connected master and slave (bytes)
system.membus.snoops                                0                       # Total snoops (count)
system.membus.snoopTraffic                          0                       # Total snoop traffic (bytes)
system.membus.snoop_fanout::samples            172670                       # Request fanout histogram
system.membus.snoop_fanout::mean                    0                       # Request fanout histogram
system.membus.snoop_fanout::stdev                   0                       # Request fanout histogram
system.membus.snoop_fanout::underflows              0      0.00%      0.00% # Request fanout histogram
system.membus.snoop_fanout::0                  172670    100.00%    100.00% # Request fanout histogram
system.membus.snoop_fanout::1                       0      0.00%    100.00% # Request fanout histogram
system.membus.snoop_fanout::overflows               0      0.00%    100.00% # Request fanout histogram
system.membus.snoop_fanout::min_value               0                       # Request fanout histogram
system.membus.snoop_fanout::max_value               0                       # Request fanout histogram
system.membus.snoop_fanout::total              172670                       # Request fanout histogram
system.membus.reqLayer2.occupancy            93246000                       # Layer occupancy (ticks)
system.membus.reqLayer2.utilization               1.1                       # Layer utilization (%)
system.membus.respLayer0.occupancy           39475750                       # Layer occupancy (ticks)
system.membus.respLayer0.utilization              0.5                       # Layer utilization (%)
system.membus.respLayer1.occupancy          162528500                       # Layer occupancy (ticks)
system.membus.respLayer1.utilization              1.9                       # Layer utilization (%)

---------- End Simulation Statistics   ----------
