
---------- Begin Simulation Statistics ----------
sim_seconds                                  0.008641                       # Number of seconds simulated
sim_ticks                                  8641110000                       # Number of ticks simulated
final_tick                                 8641110000                       # Number of ticks from beginning of simulation (restored from checkpoints and never reset)
sim_freq                                 1000000000000                       # Frequency of simulated ticks
host_inst_rate                                  12837                       # Simulator instruction rate (inst/s)
host_op_rate                                    23747                       # Simulator op (including micro ops) rate (op/s)
host_tick_rate                             1109233658                       # Simulator tick rate (ticks/s)
host_mem_usage                                4156908                       # Number of bytes of host memory used
host_seconds                                     7.79                       # Real time elapsed on the host
sim_insts                                      100001                       # Number of instructions simulated
sim_ops                                        184992                       # Number of ops (including micro ops) simulated
system.clk_domain.voltage_domain.voltage            1                       # Voltage in Volts
system.clk_domain.clock                           500                       # Clock period in ticks
system.mem_ctrl.pwrStateResidencyTicks::UNDEFINED   8641110000                       # Cumulative time (in ticks) in various power states
system.mem_ctrl.bytes_read::.cpu.inst         1057112                       # Number of bytes read from this memory
system.mem_ctrl.bytes_read::.cpu.data          145305                       # Number of bytes read from this memory
system.mem_ctrl.bytes_read::total             1202417                       # Number of bytes read from this memory
system.mem_ctrl.bytes_inst_read::.cpu.inst      1057112                       # Number of instructions bytes read from this memory
system.mem_ctrl.bytes_inst_read::total        1057112                       # Number of instructions bytes read from this memory
system.mem_ctrl.bytes_written::.cpu.data        79123                       # Number of bytes written to this memory
system.mem_ctrl.bytes_written::total            79123                       # Number of bytes written to this memory
system.mem_ctrl.num_reads::.cpu.inst           132139                       # Number of read requests responded to by this memory
system.mem_ctrl.num_reads::.cpu.data            26896                       # Number of read requests responded to by this memory
system.mem_ctrl.num_reads::total               159035                       # Number of read requests responded to by this memory
system.mem_ctrl.num_writes::.cpu.data           12442                       # Number of write requests responded to by this memory
system.mem_ctrl.num_writes::total               12442                       # Number of write requests responded to by this memory
system.mem_ctrl.bw_read::.cpu.inst          122335209                       # Total read bandwidth from this memory (bytes/s)
system.mem_ctrl.bw_read::.cpu.data           16815548                       # Total read bandwidth from this memory (bytes/s)
system.mem_ctrl.bw_read::total              139150757                       # Total read bandwidth from this memory (bytes/s)
system.mem_ctrl.bw_inst_read::.cpu.inst     122335209                       # Instruction read bandwidth from this memory (bytes/s)
system.mem_ctrl.bw_inst_read::total         122335209                       # Instruction read bandwidth from this memory (bytes/s)
system.mem_ctrl.bw_write::.cpu.data           9156578                       # Write bandwidth from this memory (bytes/s)
system.mem_ctrl.bw_write::total               9156578                       # Write bandwidth from this memory (bytes/s)
system.mem_ctrl.bw_total::.cpu.inst         122335209                       # Total bandwidth to/from this memory (bytes/s)
system.mem_ctrl.bw_total::.cpu.data          25972126                       # Total bandwidth to/from this memory (bytes/s)
system.mem_ctrl.bw_total::total             148307336                       # Total bandwidth to/from this memory (bytes/s)
system.mem_ctrl.avgPriority_.cpu.inst::samples    132140.00                       # Average QoS priority value for accepted requests
system.mem_ctrl.avgPriority_.cpu.data::samples     26303.00                       # Average QoS priority value for accepted requests
system.mem_ctrl.priorityMinLatency       0.000000018750                       # per QoS priority minimum request to response latency (s)
system.mem_ctrl.priorityMaxLatency       0.008536482750                       # per QoS priority maximum request to response latency (s)
system.mem_ctrl.numReadWriteTurnArounds            46                       # Number of turnarounds from READ to WRITE
system.mem_ctrl.numWriteReadTurnArounds            46                       # Number of turnarounds from WRITE to READ
system.mem_ctrl.numStayReadState               329914                       # Number of times bus staying in READ state
system.mem_ctrl.numStayWriteState                 708                       # Number of times bus staying in WRITE state
system.mem_ctrl.readReqs                       159036                       # Number of read requests accepted
system.mem_ctrl.writeReqs                       12442                       # Number of write requests accepted
system.mem_ctrl.readBursts                     159036                       # Number of DRAM read bursts, including those serviced by the write queue
system.mem_ctrl.writeBursts                     12442                       # Number of DRAM write bursts, including those merged in the write queue
system.mem_ctrl.bytesReadDRAM                10091328                       # Total number of bytes read from DRAM
system.mem_ctrl.bytesReadWrQ                    86976                       # Total number of bytes read from write queue
system.mem_ctrl.bytesWritten                    47552                       # Total number of bytes written to DRAM
system.mem_ctrl.bytesReadSys                  1202425                       # Total read bytes from the system interface side
system.mem_ctrl.bytesWrittenSys                 79123                       # Total written bytes from the system interface side
system.mem_ctrl.servicedByWrQ                    1359                       # Number of DRAM read bursts serviced by the write queue
system.mem_ctrl.mergedWrBursts                  11676                       # Number of DRAM write bursts merged with an existing one
system.mem_ctrl.neitherReadNorWriteReqs             0                       # Number of requests that are neither read nor write
system.mem_ctrl.perBankRdBursts::0               2820                       # Per bank write bursts
system.mem_ctrl.perBankRdBursts::1               2057                       # Per bank write bursts
system.mem_ctrl.perBankRdBursts::2              14657                       # Per bank write bursts
system.mem_ctrl.perBankRdBursts::3                773                       # Per bank write bursts
system.mem_ctrl.perBankRdBursts::4               2783                       # Per bank write bursts
system.mem_ctrl.perBankRdBursts::5               1710                       # Per bank write bursts
system.mem_ctrl.perBankRdBursts::6               3447                       # Per bank write bursts
system.mem_ctrl.perBankRdBursts::7              26957                       # Per bank write bursts
system.mem_ctrl.perBankRdBursts::8               3395                       # Per bank write bursts
system.mem_ctrl.perBankRdBursts::9              10396                       # Per bank write bursts
system.mem_ctrl.perBankRdBursts::10             55261                       # Per bank write bursts
system.mem_ctrl.perBankRdBursts::11             25363                       # Per bank write bursts
system.mem_ctrl.perBankRdBursts::12              3293                       # Per bank write bursts
system.mem_ctrl.perBankRdBursts::13              2895                       # Per bank write bursts
system.mem_ctrl.perBankRdBursts::14              1664                       # Per bank write bursts
system.mem_ctrl.perBankRdBursts::15               206                       # Per bank write bursts
system.mem_ctrl.perBankWrBursts::0                 92                       # Per bank write bursts
system.mem_ctrl.perBankWrBursts::1                117                       # Per bank write bursts
system.mem_ctrl.perBankWrBursts::2                 72                       # Per bank write bursts
system.mem_ctrl.perBankWrBursts::3                  3                       # Per bank write bursts
system.mem_ctrl.perBankWrBursts::4                 12                       # Per bank write bursts
system.mem_ctrl.perBankWrBursts::5                  4                       # Per bank write bursts
system.mem_ctrl.perBankWrBursts::6                 73                       # Per bank write bursts
system.mem_ctrl.perBankWrBursts::7                126                       # Per bank write bursts
system.mem_ctrl.perBankWrBursts::8                 49                       # Per bank write bursts
system.mem_ctrl.perBankWrBursts::9                195                       # Per bank write bursts
system.mem_ctrl.perBankWrBursts::10                 0                       # Per bank write bursts
system.mem_ctrl.perBankWrBursts::11                 0                       # Per bank write bursts
system.mem_ctrl.perBankWrBursts::12                 0                       # Per bank write bursts
system.mem_ctrl.perBankWrBursts::13                 0                       # Per bank write bursts
system.mem_ctrl.perBankWrBursts::14                 0                       # Per bank write bursts
system.mem_ctrl.perBankWrBursts::15                 0                       # Per bank write bursts
system.mem_ctrl.numRdRetry                          0                       # Number of times read queue was full causing retry
system.mem_ctrl.numWrRetry                          0                       # Number of times write queue was full causing retry
system.mem_ctrl.totGap                     8641038500                       # Total gap between requests
system.mem_ctrl.readPktSize::0                   7165                       # Read request sizes (log2)
system.mem_ctrl.readPktSize::1                   1154                       # Read request sizes (log2)
system.mem_ctrl.readPktSize::2                   3196                       # Read request sizes (log2)
system.mem_ctrl.readPktSize::3                 147521                       # Read request sizes (log2)
system.mem_ctrl.readPktSize::4                      0                       # Read request sizes (log2)
system.mem_ctrl.readPktSize::5                      0                       # Read request sizes (log2)
system.mem_ctrl.readPktSize::6                      0                       # Read request sizes (log2)
system.mem_ctrl.writePktSize::0                  2112                       # Write request sizes (log2)
system.mem_ctrl.writePktSize::1                    76                       # Write request sizes (log2)
system.mem_ctrl.writePktSize::2                  1293                       # Write request sizes (log2)
system.mem_ctrl.writePktSize::3                  8961                       # Write request sizes (log2)
system.mem_ctrl.writePktSize::4                     0                       # Write request sizes (log2)
system.mem_ctrl.writePktSize::5                     0                       # Write request sizes (log2)
system.mem_ctrl.writePktSize::6                     0                       # Write request sizes (log2)
system.mem_ctrl.rdQLenPdf::0                   157677                       # What read queue length does an incoming req see
system.mem_ctrl.rdQLenPdf::1                        0                       # What read queue length does an incoming req see
system.mem_ctrl.rdQLenPdf::2                        0                       # What read queue length does an incoming req see
system.mem_ctrl.rdQLenPdf::3                        0                       # What read queue length does an incoming req see
system.mem_ctrl.rdQLenPdf::4                        0                       # What read queue length does an incoming req see
system.mem_ctrl.rdQLenPdf::5                        0                       # What read queue length does an incoming req see
system.mem_ctrl.rdQLenPdf::6                        0                       # What read queue length does an incoming req see
system.mem_ctrl.rdQLenPdf::7                        0                       # What read queue length does an incoming req see
system.mem_ctrl.rdQLenPdf::8                        0                       # What read queue length does an incoming req see
system.mem_ctrl.rdQLenPdf::9                        0                       # What read queue length does an incoming req see
system.mem_ctrl.rdQLenPdf::10                       0                       # What read queue length does an incoming req see
system.mem_ctrl.rdQLenPdf::11                       0                       # What read queue length does an incoming req see
system.mem_ctrl.rdQLenPdf::12                       0                       # What read queue length does an incoming req see
system.mem_ctrl.rdQLenPdf::13                       0                       # What read queue length does an incoming req see
system.mem_ctrl.rdQLenPdf::14                       0                       # What read queue length does an incoming req see
system.mem_ctrl.rdQLenPdf::15                       0                       # What read queue length does an incoming req see
system.mem_ctrl.rdQLenPdf::16                       0                       # What read queue length does an incoming req see
system.mem_ctrl.rdQLenPdf::17                       0                       # What read queue length does an incoming req see
system.mem_ctrl.rdQLenPdf::18                       0                       # What read queue length does an incoming req see
system.mem_ctrl.rdQLenPdf::19                       0                       # What read queue length does an incoming req see
system.mem_ctrl.rdQLenPdf::20                       0                       # What read queue length does an incoming req see
system.mem_ctrl.rdQLenPdf::21                       0                       # What read queue length does an incoming req see
system.mem_ctrl.rdQLenPdf::22                       0                       # What read queue length does an incoming req see
system.mem_ctrl.rdQLenPdf::23                       0                       # What read queue length does an incoming req see
system.mem_ctrl.rdQLenPdf::24                       0                       # What read queue length does an incoming req see
system.mem_ctrl.rdQLenPdf::25                       0                       # What read queue length does an incoming req see
system.mem_ctrl.rdQLenPdf::26                       0                       # What read queue length does an incoming req see
system.mem_ctrl.rdQLenPdf::27                       0                       # What read queue length does an incoming req see
system.mem_ctrl.rdQLenPdf::28                       0                       # What read queue length does an incoming req see
system.mem_ctrl.rdQLenPdf::29                       0                       # What read queue length does an incoming req see
system.mem_ctrl.rdQLenPdf::30                       0                       # What read queue length does an incoming req see
system.mem_ctrl.rdQLenPdf::31                       0                       # What read queue length does an incoming req see
system.mem_ctrl.wrQLenPdf::0                        1                       # What write queue length does an incoming req see
system.mem_ctrl.wrQLenPdf::1                        1                       # What write queue length does an incoming req see
system.mem_ctrl.wrQLenPdf::2                        1                       # What write queue length does an incoming req see
system.mem_ctrl.wrQLenPdf::3                        1                       # What write queue length does an incoming req see
system.mem_ctrl.wrQLenPdf::4                        1                       # What write queue length does an incoming req see
system.mem_ctrl.wrQLenPdf::5                        1                       # What write queue length does an incoming req see
system.mem_ctrl.wrQLenPdf::6                        1                       # What write queue length does an incoming req see
system.mem_ctrl.wrQLenPdf::7                        1                       # What write queue length does an incoming req see
system.mem_ctrl.wrQLenPdf::8                        1                       # What write queue length does an incoming req see
system.mem_ctrl.wrQLenPdf::9                        1                       # What write queue length does an incoming req see
system.mem_ctrl.wrQLenPdf::10                       1                       # What write queue length does an incoming req see
system.mem_ctrl.wrQLenPdf::11                       1                       # What write queue length does an incoming req see
system.mem_ctrl.wrQLenPdf::12                       1                       # What write queue length does an incoming req see
system.mem_ctrl.wrQLenPdf::13                       1                       # What write queue length does an incoming req see
system.mem_ctrl.wrQLenPdf::14                       1                       # What write queue length does an incoming req see
system.mem_ctrl.wrQLenPdf::15                       4                       # What write queue length does an incoming req see
system.mem_ctrl.wrQLenPdf::16                       4                       # What write queue length does an incoming req see
system.mem_ctrl.wrQLenPdf::17                      47                       # What write queue length does an incoming req see
system.mem_ctrl.wrQLenPdf::18                      47                       # What write queue length does an incoming req see
system.mem_ctrl.wrQLenPdf::19                      48                       # What write queue length does an incoming req see
system.mem_ctrl.wrQLenPdf::20                      47                       # What write queue length does an incoming req see
system.mem_ctrl.wrQLenPdf::21                      47                       # What write queue length does an incoming req see
system.mem_ctrl.wrQLenPdf::22                      47                       # What write queue length does an incoming req see
system.mem_ctrl.wrQLenPdf::23                      46                       # What write queue length does an incoming req see
system.mem_ctrl.wrQLenPdf::24                      46                       # What write queue length does an incoming req see
system.mem_ctrl.wrQLenPdf::25                      46                       # What write queue length does an incoming req see
system.mem_ctrl.wrQLenPdf::26                      46                       # What write queue length does an incoming req see
system.mem_ctrl.wrQLenPdf::27                      46                       # What write queue length does an incoming req see
system.mem_ctrl.wrQLenPdf::28                      46                       # What write queue length does an incoming req see
system.mem_ctrl.wrQLenPdf::29                      46                       # What write queue length does an incoming req see
system.mem_ctrl.wrQLenPdf::30                      46                       # What write queue length does an incoming req see
system.mem_ctrl.wrQLenPdf::31                      46                       # What write queue length does an incoming req see
system.mem_ctrl.wrQLenPdf::32                      46                       # What write queue length does an incoming req see
system.mem_ctrl.wrQLenPdf::33                       0                       # What write queue length does an incoming req see
system.mem_ctrl.wrQLenPdf::34                       0                       # What write queue length does an incoming req see
system.mem_ctrl.wrQLenPdf::35                       0                       # What write queue length does an incoming req see
system.mem_ctrl.wrQLenPdf::36                       0                       # What write queue length does an incoming req see
system.mem_ctrl.wrQLenPdf::37                       0                       # What write queue length does an incoming req see
system.mem_ctrl.wrQLenPdf::38                       0                       # What write queue length does an incoming req see
system.mem_ctrl.wrQLenPdf::39                       0                       # What write queue length does an incoming req see
system.mem_ctrl.wrQLenPdf::40                       0                       # What write queue length does an incoming req see
system.mem_ctrl.wrQLenPdf::41                       0                       # What write queue length does an incoming req see
system.mem_ctrl.wrQLenPdf::42                       0                       # What write queue length does an incoming req see
system.mem_ctrl.wrQLenPdf::43                       0                       # What write queue length does an incoming req see
system.mem_ctrl.wrQLenPdf::44                       0                       # What write queue length does an incoming req see
system.mem_ctrl.wrQLenPdf::45                       0                       # What write queue length does an incoming req see
system.mem_ctrl.wrQLenPdf::46                       0                       # What write queue length does an incoming req see
system.mem_ctrl.wrQLenPdf::47                       0                       # What write queue length does an incoming req see
system.mem_ctrl.wrQLenPdf::48                       0                       # What write queue length does an incoming req see
system.mem_ctrl.wrQLenPdf::49                       0                       # What write queue length does an incoming req see
system.mem_ctrl.wrQLenPdf::50                       0                       # What write queue length does an incoming req see
system.mem_ctrl.wrQLenPdf::51                       0                       # What write queue length does an incoming req see
system.mem_ctrl.wrQLenPdf::52                       0                       # What write queue length does an incoming req see
system.mem_ctrl.wrQLenPdf::53                       0                       # What write queue length does an incoming req see
system.mem_ctrl.wrQLenPdf::54                       0                       # What write queue length does an incoming req see
system.mem_ctrl.wrQLenPdf::55                       0                       # What write queue length does an incoming req see
system.mem_ctrl.wrQLenPdf::56                       0                       # What write queue length does an incoming req see
system.mem_ctrl.wrQLenPdf::57                       0                       # What write queue length does an incoming req see
system.mem_ctrl.wrQLenPdf::58                       0                       # What write queue length does an incoming req see
system.mem_ctrl.wrQLenPdf::59                       0                       # What write queue length does an incoming req see
system.mem_ctrl.wrQLenPdf::60                       0                       # What write queue length does an incoming req see
system.mem_ctrl.wrQLenPdf::61                       0                       # What write queue length does an incoming req see
system.mem_ctrl.wrQLenPdf::62                       0                       # What write queue length does an incoming req see
system.mem_ctrl.wrQLenPdf::63                       0                       # What write queue length does an incoming req see
system.mem_ctrl.bytesPerActivate::samples        15323                       # Bytes accessed per row activation
system.mem_ctrl.bytesPerActivate::mean     661.593683                       # Bytes accessed per row activation
system.mem_ctrl.bytesPerActivate::gmean    446.092095                       # Bytes accessed per row activation
system.mem_ctrl.bytesPerActivate::stdev    407.596180                       # Bytes accessed per row activation
system.mem_ctrl.bytesPerActivate::0-127          2517     16.43%     16.43% # Bytes accessed per row activation
system.mem_ctrl.bytesPerActivate::128-255         1773     11.57%     28.00% # Bytes accessed per row activation
system.mem_ctrl.bytesPerActivate::256-383          779      5.08%     33.08% # Bytes accessed per row activation
system.mem_ctrl.bytesPerActivate::384-511          555      3.62%     36.70% # Bytes accessed per row activation
system.mem_ctrl.bytesPerActivate::512-639          573      3.74%     40.44% # Bytes accessed per row activation
system.mem_ctrl.bytesPerActivate::640-767          695      4.54%     44.98% # Bytes accessed per row activation
system.mem_ctrl.bytesPerActivate::768-895          557      3.64%     48.61% # Bytes accessed per row activation
system.mem_ctrl.bytesPerActivate::896-1023          267      1.74%     50.36% # Bytes accessed per row activation
system.mem_ctrl.bytesPerActivate::1024-1151         7607     49.64%    100.00% # Bytes accessed per row activation
system.mem_ctrl.bytesPerActivate::total         15323                       # Bytes accessed per row activation
system.mem_ctrl.rdPerTurnAround::samples           46                       # Reads before turning the bus around for writes
system.mem_ctrl.rdPerTurnAround::mean     2832.913043                       # Reads before turning the bus around for writes
system.mem_ctrl.rdPerTurnAround::stdev    9865.555867                       # Reads before turning the bus around for writes
system.mem_ctrl.rdPerTurnAround::0-4095            41     89.13%     89.13% # Reads before turning the bus around for writes
system.mem_ctrl.rdPerTurnAround::4096-8191            3      6.52%     95.65% # Reads before turning the bus around for writes
system.mem_ctrl.rdPerTurnAround::8192-12287            1      2.17%     97.83% # Reads before turning the bus around for writes
system.mem_ctrl.rdPerTurnAround::65536-69631            1      2.17%    100.00% # Reads before turning the bus around for writes
system.mem_ctrl.rdPerTurnAround::total             46                       # Reads before turning the bus around for writes
system.mem_ctrl.wrPerTurnAround::samples           46                       # Writes before turning the bus around for reads
system.mem_ctrl.wrPerTurnAround::mean       16.152174                       # Writes before turning the bus around for reads
system.mem_ctrl.wrPerTurnAround::gmean      16.142339                       # Writes before turning the bus around for reads
system.mem_ctrl.wrPerTurnAround::stdev       0.595068                       # Writes before turning the bus around for reads
system.mem_ctrl.wrPerTurnAround::16                43     93.48%     93.48% # Writes before turning the bus around for reads
system.mem_ctrl.wrPerTurnAround::18                 2      4.35%     97.83% # Writes before turning the bus around for reads
system.mem_ctrl.wrPerTurnAround::19                 1      2.17%    100.00% # Writes before turning the bus around for reads
system.mem_ctrl.wrPerTurnAround::total             46                       # Writes before turning the bus around for reads
system.mem_ctrl.masterReadBytes::.cpu.inst      1057120                       # Per-master bytes read from memory
system.mem_ctrl.masterReadBytes::.cpu.data       134876                       # Per-master bytes read from memory
system.mem_ctrl.masterWriteBytes::.cpu.data         5315                       # Per-master bytes write to memory
system.mem_ctrl.masterReadRate::.cpu.inst 122336135.056723028421                       # Per-master bytes read from memory rate (Bytes/sec)
system.mem_ctrl.masterReadRate::.cpu.data 15608642.871112622321                       # Per-master bytes read from memory rate (Bytes/sec)
system.mem_ctrl.masterWriteRate::.cpu.data 615083.015955126146                       # Per-master bytes write to memory rate (Bytes/sec)
system.mem_ctrl.masterReadAccesses::.cpu.inst       132140                       # Per-master read serviced memory accesses
system.mem_ctrl.masterReadAccesses::.cpu.data        26896                       # Per-master read serviced memory accesses
system.mem_ctrl.masterWriteAccesses::.cpu.data        12442                       # Per-master write serviced memory accesses
system.mem_ctrl.masterReadTotalLat::.cpu.inst   3638408750                       # Per-master read total memory access latency
system.mem_ctrl.masterReadTotalLat::.cpu.data    811182750                       # Per-master read total memory access latency
system.mem_ctrl.masterWriteTotalLat::.cpu.data 197685491000                       # Per-master write total memory access latency
system.mem_ctrl.masterReadAvgLat::.cpu.inst     27534.50                       # Per-master read average memory access latency
system.mem_ctrl.masterReadAvgLat::.cpu.data     30159.98                       # Per-master read average memory access latency
system.mem_ctrl.masterWriteAvgLat::.cpu.data  15888562.21                       # Per-master write average memory access latency
system.mem_ctrl.totQLat                    1493147750                       # Total ticks spent queuing
system.mem_ctrl.totMemAccLat               4449591500                       # Total ticks spent from burst creation until serviced by the DRAM
system.mem_ctrl.totBusLat                   788385000                       # Total ticks spent in databus transfers
system.mem_ctrl.avgQLat                       9469.66                       # Average queueing delay per DRAM burst
system.mem_ctrl.avgBusLat                     5000.00                       # Average bus latency per DRAM burst
system.mem_ctrl.avgMemAccLat                 28219.66                       # Average memory access latency per DRAM burst
system.mem_ctrl.avgRdBW                       1167.83                       # Average DRAM read bandwidth in MiByte/s
system.mem_ctrl.avgWrBW                          5.50                       # Average achieved write bandwidth in MiByte/s
system.mem_ctrl.avgRdBWSys                     139.15                       # Average system read bandwidth in MiByte/s
system.mem_ctrl.avgWrBWSys                       9.16                       # Average system write bandwidth in MiByte/s
system.mem_ctrl.peakBW                       12800.00                       # Theoretical peak bandwidth in MiByte/s
system.mem_ctrl.busUtil                          9.17                       # Data bus utilization in percentage
system.mem_ctrl.busUtilRead                      9.12                       # Data bus utilization in percentage for reads
system.mem_ctrl.busUtilWrite                     0.04                       # Data bus utilization in percentage for writes
system.mem_ctrl.avgRdQLen                        1.00                       # Average read queue length when enqueuing
system.mem_ctrl.avgWrQLen                       27.37                       # Average write queue length when enqueuing
system.mem_ctrl.readRowHits                    142418                       # Number of row buffer hits during reads
system.mem_ctrl.writeRowHits                      675                       # Number of row buffer hits during writes
system.mem_ctrl.readRowHitRate                  90.32                       # Row buffer hit rate for reads
system.mem_ctrl.writeRowHitRate                 88.12                       # Row buffer hit rate for writes
system.mem_ctrl.avgGap                       50391.53                       # Average gap between requests
system.mem_ctrl.pageHitRate                     90.31                       # Row buffer hit rate, read and write combined
system.mem_ctrl_0.actEnergy                  40976460                       # Energy for activate commands per rank (pJ)
system.mem_ctrl_0.preEnergy                  21775710                       # Energy for precharge commands per rank (pJ)
system.mem_ctrl_0.readEnergy                394149420                       # Energy for read commands per rank (pJ)
system.mem_ctrl_0.writeEnergy                 2604780                       # Energy for write commands per rank (pJ)
system.mem_ctrl_0.refreshEnergy          667499040.000000                       # Energy for refresh commands per rank (pJ)
system.mem_ctrl_0.actBackEnergy             811805970                       # Energy for active background per rank (pJ)
system.mem_ctrl_0.preBackEnergy              26539680                       # Energy for precharge background per rank (pJ)
system.mem_ctrl_0.actPowerDownEnergy       2597887860                       # Energy for active power-down per rank (pJ)
system.mem_ctrl_0.prePowerDownEnergy        353145600                       # Energy for precharge power-down per rank (pJ)
system.mem_ctrl_0.selfRefreshEnergy          48614280                       # Energy for self refresh per rank (pJ)
system.mem_ctrl_0.totalEnergy              4965010920                       # Total energy per rank (pJ)
system.mem_ctrl_0.averagePower             574.580224                       # Core power per rank (mW)
system.mem_ctrl_0.totalIdleTime            6791426000                       # Total Idle time Per DRAM Rank
system.mem_ctrl_0.memoryStateTime::IDLE      17526000                       # Time in different power states
system.mem_ctrl_0.memoryStateTime::REF      282360000                       # Time in different power states
system.mem_ctrl_0.memoryStateTime::SREF     174919750                       # Time in different power states
system.mem_ctrl_0.memoryStateTime::PRE_PDN    919627250                       # Time in different power states
system.mem_ctrl_0.memoryStateTime::ACT     1549798000                       # Time in different power states
system.mem_ctrl_0.memoryStateTime::ACT_PDN   5696879000                       # Time in different power states
system.mem_ctrl_1.actEnergy                  68458320                       # Energy for activate commands per rank (pJ)
system.mem_ctrl_1.preEnergy                  36375075                       # Energy for precharge commands per rank (pJ)
system.mem_ctrl_1.readEnergy                731657220                       # Energy for read commands per rank (pJ)
system.mem_ctrl_1.writeEnergy                 1273680                       # Energy for write commands per rank (pJ)
system.mem_ctrl_1.refreshEnergy          675489360.000000                       # Energy for refresh commands per rank (pJ)
system.mem_ctrl_1.actBackEnergy            1405467810                       # Energy for active background per rank (pJ)
system.mem_ctrl_1.preBackEnergy              27761280                       # Energy for precharge background per rank (pJ)
system.mem_ctrl_1.actPowerDownEnergy       2244381840                       # Energy for active power-down per rank (pJ)
system.mem_ctrl_1.prePowerDownEnergy        187404000                       # Energy for precharge power-down per rank (pJ)
system.mem_ctrl_1.selfRefreshEnergy          25041480                       # Energy for self refresh per rank (pJ)
system.mem_ctrl_1.totalEnergy              5403310065                       # Total energy per rank (pJ)
system.mem_ctrl_1.averagePower             625.302775                       # Core power per rank (mW)
system.mem_ctrl_1.totalIdleTime            5485692750                       # Total Idle time Per DRAM Rank
system.mem_ctrl_1.memoryStateTime::IDLE      23092250                       # Time in different power states
system.mem_ctrl_1.memoryStateTime::REF      285740000                       # Time in different power states
system.mem_ctrl_1.memoryStateTime::SREF      76728500                       # Time in different power states
system.mem_ctrl_1.memoryStateTime::PRE_PDN    488027000                       # Time in different power states
system.mem_ctrl_1.memoryStateTime::ACT     2846309750                       # Time in different power states
system.mem_ctrl_1.memoryStateTime::ACT_PDN   4921212500                       # Time in different power states
system.pwrStateResidencyTicks::UNDEFINED   8641110000                       # Cumulative time (in ticks) in various power states
system.checker.pwrStateResidencyTicks::UNDEFINED   8641110000                       # Cumulative time (in ticks) in various power states
system.cpu.dtb.walker.pwrStateResidencyTicks::UNDEFINED   8641110000                       # Cumulative time (in ticks) in various power states
system.cpu.dtb.rdAccesses                       26896                       # TLB accesses on read requests
system.cpu.dtb.wrAccesses                       12442                       # TLB accesses on write requests
system.cpu.dtb.rdMisses                            72                       # TLB misses on read requests
system.cpu.dtb.wrMisses                            17                       # TLB misses on write requests
system.cpu.apic_clk_domain.clock                 8000                       # Clock period in ticks
system.cpu.interrupts.pwrStateResidencyTicks::UNDEFINED   8641110000                       # Cumulative time (in ticks) in various power states
system.cpu.itb.walker.pwrStateResidencyTicks::UNDEFINED   8641110000                       # Cumulative time (in ticks) in various power states
system.cpu.itb.rdAccesses                           0                       # TLB accesses on read requests
system.cpu.itb.wrAccesses                      132140                       # TLB accesses on write requests
system.cpu.itb.rdMisses                             0                       # TLB misses on read requests
system.cpu.itb.wrMisses                            78                       # TLB misses on write requests
system.cpu.workload.numSyscalls                    27                       # Number of system calls
system.cpu.pwrStateResidencyTicks::ON      8641110000                       # Cumulative time (in ticks) in various power states
system.cpu.numCycles                         17282220                       # number of cpu cycles simulated
system.cpu.numWorkItemsStarted                      0                       # number of work items this cpu started
system.cpu.numWorkItemsCompleted                    0                       # number of work items this cpu completed
system.cpu.committedInsts                      100001                       # Number of instructions committed
system.cpu.committedOps                        184992                       # Number of ops (including micro ops) committed
system.cpu.num_int_alu_accesses                181837                       # Number of integer alu accesses
system.cpu.num_fp_alu_accesses                    529                       # Number of float alu accesses
system.cpu.num_vec_alu_accesses                     0                       # Number of vector alu accesses
system.cpu.num_func_calls                        1386                       # number of times a function call or return occured
system.cpu.num_conditional_control_insts        19931                       # number of instructions that are conditional controls
system.cpu.num_int_insts                       181837                       # number of integer instructions
system.cpu.num_fp_insts                           529                       # number of float instructions
system.cpu.num_vec_insts                            0                       # number of vector instructions
system.cpu.num_int_register_reads              371824                       # number of times the integer registers were read
system.cpu.num_int_register_writes             152346                       # number of times the integer registers were written
system.cpu.num_fp_register_reads                  387                       # number of times the floating registers were read
system.cpu.num_fp_register_writes                 266                       # number of times the floating registers were written
system.cpu.num_vec_register_reads                   0                       # number of times the vector registers were read
system.cpu.num_vec_register_writes                  0                       # number of times the vector registers were written
system.cpu.num_cc_register_reads               122670                       # number of times the CC registers were read
system.cpu.num_cc_register_writes               77969                       # number of times the CC registers were written
system.cpu.num_mem_refs                         39337                       # number of memory refs
system.cpu.num_load_insts                       26896                       # Number of load instructions
system.cpu.num_store_insts                      12441                       # Number of store instructions
system.cpu.num_idle_cycles                          0                       # Number of idle cycles
system.cpu.num_busy_cycles                   17282220                       # Number of busy cycles
system.cpu.not_idle_fraction                        1                       # Percentage of non-idle cycles
system.cpu.idle_fraction                            0                       # Percentage of idle cycles
system.cpu.Branches                             22139                       # Number of branches fetched
system.cpu.op_class::No_OpClass                  3094      1.67%      1.67% # Class of executed instruction
system.cpu.op_class::IntAlu                    141022     76.23%     77.90% # Class of executed instruction
system.cpu.op_class::IntMult                       19      0.01%     77.91% # Class of executed instruction
system.cpu.op_class::IntDiv                      1335      0.72%     78.64% # Class of executed instruction
system.cpu.op_class::FloatAdd                      42      0.02%     78.66% # Class of executed instruction
system.cpu.op_class::FloatCmp                       0      0.00%     78.66% # Class of executed instruction
system.cpu.op_class::FloatCvt                      80      0.04%     78.70% # Class of executed instruction
system.cpu.op_class::FloatMult                      0      0.00%     78.70% # Class of executed instruction
system.cpu.op_class::FloatMultAcc                   0      0.00%     78.70% # Class of executed instruction
system.cpu.op_class::FloatDiv                       0      0.00%     78.70% # Class of executed instruction
system.cpu.op_class::FloatMisc                      0      0.00%     78.70% # Class of executed instruction
system.cpu.op_class::FloatSqrt                      0      0.00%     78.70% # Class of executed instruction
system.cpu.op_class::SimdAdd                        0      0.00%     78.70% # Class of executed instruction
system.cpu.op_class::SimdAddAcc                     0      0.00%     78.70% # Class of executed instruction
system.cpu.op_class::SimdAlu                        4      0.00%     78.70% # Class of executed instruction
system.cpu.op_class::SimdCmp                        0      0.00%     78.70% # Class of executed instruction
system.cpu.op_class::SimdCvt                       22      0.01%     78.72% # Class of executed instruction
system.cpu.op_class::SimdMisc                      37      0.02%     78.74% # Class of executed instruction
system.cpu.op_class::SimdMult                       0      0.00%     78.74% # Class of executed instruction
system.cpu.op_class::SimdMultAcc                    0      0.00%     78.74% # Class of executed instruction
system.cpu.op_class::SimdShift                      0      0.00%     78.74% # Class of executed instruction
system.cpu.op_class::SimdShiftAcc                   0      0.00%     78.74% # Class of executed instruction
system.cpu.op_class::SimdSqrt                       0      0.00%     78.74% # Class of executed instruction
system.cpu.op_class::SimdFloatAdd                   0      0.00%     78.74% # Class of executed instruction
system.cpu.op_class::SimdFloatAlu                   0      0.00%     78.74% # Class of executed instruction
system.cpu.op_class::SimdFloatCmp                   0      0.00%     78.74% # Class of executed instruction
system.cpu.op_class::SimdFloatCvt                   0      0.00%     78.74% # Class of executed instruction
system.cpu.op_class::SimdFloatDiv                   0      0.00%     78.74% # Class of executed instruction
system.cpu.op_class::SimdFloatMisc                  0      0.00%     78.74% # Class of executed instruction
system.cpu.op_class::SimdFloatMult                  0      0.00%     78.74% # Class of executed instruction
system.cpu.op_class::SimdFloatMultAcc               0      0.00%     78.74% # Class of executed instruction
system.cpu.op_class::SimdFloatSqrt                  0      0.00%     78.74% # Class of executed instruction
system.cpu.op_class::SimdAes                        0      0.00%     78.74% # Class of executed instruction
system.cpu.op_class::SimdAesMix                     0      0.00%     78.74% # Class of executed instruction
system.cpu.op_class::SimdSha1Hash                   0      0.00%     78.74% # Class of executed instruction
system.cpu.op_class::SimdSha1Hash2                  0      0.00%     78.74% # Class of executed instruction
system.cpu.op_class::SimdSha256Hash                 0      0.00%     78.74% # Class of executed instruction
system.cpu.op_class::SimdSha256Hash2                0      0.00%     78.74% # Class of executed instruction
system.cpu.op_class::SimdShaSigma2                  0      0.00%     78.74% # Class of executed instruction
system.cpu.op_class::SimdShaSigma3                  0      0.00%     78.74% # Class of executed instruction
system.cpu.op_class::MemRead                    26724     14.45%     93.18% # Class of executed instruction
system.cpu.op_class::MemWrite                   12281      6.64%     99.82% # Class of executed instruction
system.cpu.op_class::FloatMemRead                 172      0.09%     99.91% # Class of executed instruction
system.cpu.op_class::FloatMemWrite                160      0.09%    100.00% # Class of executed instruction
system.cpu.op_class::IprAccess                      0      0.00%    100.00% # Class of executed instruction
system.cpu.op_class::InstPrefetch                   0      0.00%    100.00% # Class of executed instruction
system.cpu.op_class::total                     184992                       # Class of executed instruction
system.membus.snoop_filter.tot_requests             0                       # Total number of requests made to the snoop filter.
system.membus.snoop_filter.hit_single_requests            0                       # Number of requests hitting in the snoop filter with a single holder of the requested data.
system.membus.snoop_filter.hit_multi_requests            0                       # Number of requests hitting in the snoop filter with multiple (>1) holders of the requested data.
system.membus.snoop_filter.tot_snoops               0                       # Total number of snoops made to the snoop filter.
system.membus.snoop_filter.hit_single_snoops            0                       # Number of snoops hitting in the snoop filter with a single holder of the requested data.
system.membus.snoop_filter.hit_multi_snoops            0                       # Number of snoops hitting in the snoop filter with multiple (>1) holders of the requested data.
system.membus.pwrStateResidencyTicks::UNDEFINED   8641110000                       # Cumulative time (in ticks) in various power states
system.membus.trans_dist::ReadReq              159036                       # Transaction distribution
system.membus.trans_dist::ReadResp             159035                       # Transaction distribution
system.membus.trans_dist::WriteReq              12442                       # Transaction distribution
system.membus.trans_dist::WriteResp             12442                       # Transaction distribution
system.membus.pkt_count_system.checker-master::system.mem_ctrl.port        78676                       # Packet count per connected master and slave (bytes)
system.membus.pkt_count_system.checker-master::total        78676                       # Packet count per connected master and slave (bytes)
system.membus.pkt_count_system.cpu.icache_port::system.mem_ctrl.port       264279                       # Packet count per connected master and slave (bytes)
system.membus.pkt_count_system.cpu.icache_port::total       264279                       # Packet count per connected master and slave (bytes)
system.membus.pkt_count::total                 342955                       # Packet count per connected master and slave (bytes)
system.membus.pkt_size_system.checker-master::system.mem_ctrl.port       224428                       # Cumulative packet size per connected master and slave (bytes)
system.membus.pkt_size_system.checker-master::total       224428                       # Cumulative packet size per connected master and slave (bytes)
system.membus.pkt_size_system.cpu.icache_port::system.mem_ctrl.port      1057112                       # Cumulative packet size per connected master and slave (bytes)
system.membus.pkt_size_system.cpu.icache_port::total      1057112                       # Cumulative packet size per connected master and slave (bytes)
system.membus.pkt_size::total                 1281540                       # Cumulative packet size per connected master and slave (bytes)
system.membus.snoops                                0                       # Total snoops (count)
system.membus.snoopTraffic                          0                       # Total snoop traffic (bytes)
system.membus.snoop_fanout::samples            171478                       # Request fanout histogram
system.membus.snoop_fanout::mean                    0                       # Request fanout histogram
system.membus.snoop_fanout::stdev                   0                       # Request fanout histogram
system.membus.snoop_fanout::underflows              0      0.00%      0.00% # Request fanout histogram
system.membus.snoop_fanout::0                  171478    100.00%    100.00% # Request fanout histogram
system.membus.snoop_fanout::1                       0      0.00%    100.00% # Request fanout histogram
system.membus.snoop_fanout::overflows               0      0.00%    100.00% # Request fanout histogram
system.membus.snoop_fanout::min_value               0                       # Request fanout histogram
system.membus.snoop_fanout::max_value               0                       # Request fanout histogram
system.membus.snoop_fanout::total              171478                       # Request fanout histogram
system.membus.reqLayer2.occupancy            91960000                       # Layer occupancy (ticks)
system.membus.reqLayer2.utilization               1.1                       # Layer utilization (%)
system.membus.respLayer0.occupancy           38576750                       # Layer occupancy (ticks)
system.membus.respLayer0.utilization              0.4                       # Layer utilization (%)
system.membus.respLayer1.occupancy          163101000                       # Layer occupancy (ticks)
system.membus.respLayer1.utilization              1.9                       # Layer utilization (%)

---------- End Simulation Statistics   ----------
