
---------- Begin Simulation Statistics ----------
sim_seconds                                  0.008648                       # Number of seconds simulated
sim_ticks                                  8648135000                       # Number of ticks simulated
final_tick                                 8648135000                       # Number of ticks from beginning of simulation (restored from checkpoints and never reset)
sim_freq                                 1000000000000                       # Frequency of simulated ticks
host_inst_rate                                  11812                       # Simulator instruction rate (inst/s)
host_op_rate                                    21651                       # Simulator op (including micro ops) rate (op/s)
host_tick_rate                             1021507259                       # Simulator tick rate (ticks/s)
host_mem_usage                                4156220                       # Number of bytes of host memory used
host_seconds                                     8.47                       # Real time elapsed on the host
sim_insts                                      100000                       # Number of instructions simulated
sim_ops                                        183301                       # Number of ops (including micro ops) simulated
system.clk_domain.voltage_domain.voltage            1                       # Voltage in Volts
system.clk_domain.clock                           500                       # Clock period in ticks
system.mem_ctrl.pwrStateResidencyTicks::UNDEFINED   8648135000                       # Cumulative time (in ticks) in various power states
system.mem_ctrl.bytes_read::.cpu.inst         1054000                       # Number of bytes read from this memory
system.mem_ctrl.bytes_read::.cpu.data          150101                       # Number of bytes read from this memory
system.mem_ctrl.bytes_read::total             1204101                       # Number of bytes read from this memory
system.mem_ctrl.bytes_inst_read::.cpu.inst      1054000                       # Number of instructions bytes read from this memory
system.mem_ctrl.bytes_inst_read::total        1054000                       # Number of instructions bytes read from this memory
system.mem_ctrl.bytes_written::.cpu.data        89542                       # Number of bytes written to this memory
system.mem_ctrl.bytes_written::total            89542                       # Number of bytes written to this memory
system.mem_ctrl.num_reads::.cpu.inst           131750                       # Number of read requests responded to by this memory
system.mem_ctrl.num_reads::.cpu.data            27220                       # Number of read requests responded to by this memory
system.mem_ctrl.num_reads::total               158970                       # Number of read requests responded to by this memory
system.mem_ctrl.num_writes::.cpu.data           13990                       # Number of write requests responded to by this memory
system.mem_ctrl.num_writes::total               13990                       # Number of write requests responded to by this memory
system.mem_ctrl.bw_read::.cpu.inst          121875988                       # Total read bandwidth from this memory (bytes/s)
system.mem_ctrl.bw_read::.cpu.data           17356459                       # Total read bandwidth from this memory (bytes/s)
system.mem_ctrl.bw_read::total              139232447                       # Total read bandwidth from this memory (bytes/s)
system.mem_ctrl.bw_inst_read::.cpu.inst     121875988                       # Instruction read bandwidth from this memory (bytes/s)
system.mem_ctrl.bw_inst_read::total         121875988                       # Instruction read bandwidth from this memory (bytes/s)
system.mem_ctrl.bw_write::.cpu.data          10353909                       # Write bandwidth from this memory (bytes/s)
system.mem_ctrl.bw_write::total              10353909                       # Write bandwidth from this memory (bytes/s)
system.mem_ctrl.bw_total::.cpu.inst         121875988                       # Total bandwidth to/from this memory (bytes/s)
system.mem_ctrl.bw_total::.cpu.data          27710368                       # Total bandwidth to/from this memory (bytes/s)
system.mem_ctrl.bw_total::total             149586356                       # Total bandwidth to/from this memory (bytes/s)
system.mem_ctrl.avgPriority_.cpu.inst::samples    131751.00                       # Average QoS priority value for accepted requests
system.mem_ctrl.avgPriority_.cpu.data::samples     26401.00                       # Average QoS priority value for accepted requests
system.mem_ctrl.priorityMinLatency       0.000000018750                       # per QoS priority minimum request to response latency (s)
system.mem_ctrl.priorityMaxLatency       0.010302158750                       # per QoS priority maximum request to response latency (s)
system.mem_ctrl.numReadWriteTurnArounds            52                       # Number of turnarounds from READ to WRITE
system.mem_ctrl.numWriteReadTurnArounds            52                       # Number of turnarounds from WRITE to READ
system.mem_ctrl.numStayReadState               330613                       # Number of times bus staying in READ state
system.mem_ctrl.numStayWriteState                 845                       # Number of times bus staying in WRITE state
system.mem_ctrl.readReqs                       158971                       # Number of read requests accepted
system.mem_ctrl.writeReqs                       13990                       # Number of write requests accepted
system.mem_ctrl.readBursts                     158971                       # Number of DRAM read bursts, including those serviced by the write queue
system.mem_ctrl.writeBursts                     13990                       # Number of DRAM write bursts, including those merged in the write queue
system.mem_ctrl.bytesReadDRAM                10066496                       # Total number of bytes read from DRAM
system.mem_ctrl.bytesReadWrQ                   107648                       # Total number of bytes read from write queue
system.mem_ctrl.bytesWritten                    53888                       # Total number of bytes written to DRAM
system.mem_ctrl.bytesReadSys                  1204109                       # Total read bytes from the system interface side
system.mem_ctrl.bytesWrittenSys                 89542                       # Total written bytes from the system interface side
system.mem_ctrl.servicedByWrQ                    1682                       # Number of DRAM read bursts serviced by the write queue
system.mem_ctrl.mergedWrBursts                  13127                       # Number of DRAM write bursts merged with an existing one
system.mem_ctrl.neitherReadNorWriteReqs             0                       # Number of requests that are neither read nor write
system.mem_ctrl.perBankRdBursts::0              13109                       # Per bank write bursts
system.mem_ctrl.perBankRdBursts::1              66370                       # Per bank write bursts
system.mem_ctrl.perBankRdBursts::2              28019                       # Per bank write bursts
system.mem_ctrl.perBankRdBursts::3               2783                       # Per bank write bursts
system.mem_ctrl.perBankRdBursts::4               4441                       # Per bank write bursts
system.mem_ctrl.perBankRdBursts::5               2047                       # Per bank write bursts
system.mem_ctrl.perBankRdBursts::6                133                       # Per bank write bursts
system.mem_ctrl.perBankRdBursts::7               3100                       # Per bank write bursts
system.mem_ctrl.perBankRdBursts::8               1797                       # Per bank write bursts
system.mem_ctrl.perBankRdBursts::9              18205                       # Per bank write bursts
system.mem_ctrl.perBankRdBursts::10               775                       # Per bank write bursts
system.mem_ctrl.perBankRdBursts::11               845                       # Per bank write bursts
system.mem_ctrl.perBankRdBursts::12              1724                       # Per bank write bursts
system.mem_ctrl.perBankRdBursts::13              5008                       # Per bank write bursts
system.mem_ctrl.perBankRdBursts::14              4343                       # Per bank write bursts
system.mem_ctrl.perBankRdBursts::15              4590                       # Per bank write bursts
system.mem_ctrl.perBankWrBursts::0                280                       # Per bank write bursts
system.mem_ctrl.perBankWrBursts::1                  9                       # Per bank write bursts
system.mem_ctrl.perBankWrBursts::2                  7                       # Per bank write bursts
system.mem_ctrl.perBankWrBursts::3                  0                       # Per bank write bursts
system.mem_ctrl.perBankWrBursts::4                  0                       # Per bank write bursts
system.mem_ctrl.perBankWrBursts::5                  0                       # Per bank write bursts
system.mem_ctrl.perBankWrBursts::6                  0                       # Per bank write bursts
system.mem_ctrl.perBankWrBursts::7                  0                       # Per bank write bursts
system.mem_ctrl.perBankWrBursts::8                  0                       # Per bank write bursts
system.mem_ctrl.perBankWrBursts::9                 92                       # Per bank write bursts
system.mem_ctrl.perBankWrBursts::10               117                       # Per bank write bursts
system.mem_ctrl.perBankWrBursts::11                76                       # Per bank write bursts
system.mem_ctrl.perBankWrBursts::12                 9                       # Per bank write bursts
system.mem_ctrl.perBankWrBursts::13                30                       # Per bank write bursts
system.mem_ctrl.perBankWrBursts::14               147                       # Per bank write bursts
system.mem_ctrl.perBankWrBursts::15                75                       # Per bank write bursts
system.mem_ctrl.numRdRetry                          0                       # Number of times read queue was full causing retry
system.mem_ctrl.numWrRetry                          0                       # Number of times write queue was full causing retry
system.mem_ctrl.totGap                     8648063500                       # Total gap between requests
system.mem_ctrl.readPktSize::0                   7171                       # Read request sizes (log2)
system.mem_ctrl.readPktSize::1                    491                       # Read request sizes (log2)
system.mem_ctrl.readPktSize::2                   3629                       # Read request sizes (log2)
system.mem_ctrl.readPktSize::3                 147680                       # Read request sizes (log2)
system.mem_ctrl.readPktSize::4                      0                       # Read request sizes (log2)
system.mem_ctrl.readPktSize::5                      0                       # Read request sizes (log2)
system.mem_ctrl.readPktSize::6                      0                       # Read request sizes (log2)
system.mem_ctrl.writePktSize::0                  2212                       # Write request sizes (log2)
system.mem_ctrl.writePktSize::1                    42                       # Write request sizes (log2)
system.mem_ctrl.writePktSize::2                  1660                       # Write request sizes (log2)
system.mem_ctrl.writePktSize::3                 10076                       # Write request sizes (log2)
system.mem_ctrl.writePktSize::4                     0                       # Write request sizes (log2)
system.mem_ctrl.writePktSize::5                     0                       # Write request sizes (log2)
system.mem_ctrl.writePktSize::6                     0                       # Write request sizes (log2)
system.mem_ctrl.rdQLenPdf::0                   157289                       # What read queue length does an incoming req see
system.mem_ctrl.rdQLenPdf::1                        0                       # What read queue length does an incoming req see
system.mem_ctrl.rdQLenPdf::2                        0                       # What read queue length does an incoming req see
system.mem_ctrl.rdQLenPdf::3                        0                       # What read queue length does an incoming req see
system.mem_ctrl.rdQLenPdf::4                        0                       # What read queue length does an incoming req see
system.mem_ctrl.rdQLenPdf::5                        0                       # What read queue length does an incoming req see
system.mem_ctrl.rdQLenPdf::6                        0                       # What read queue length does an incoming req see
system.mem_ctrl.rdQLenPdf::7                        0                       # What read queue length does an incoming req see
system.mem_ctrl.rdQLenPdf::8                        0                       # What read queue length does an incoming req see
system.mem_ctrl.rdQLenPdf::9                        0                       # What read queue length does an incoming req see
system.mem_ctrl.rdQLenPdf::10                       0                       # What read queue length does an incoming req see
system.mem_ctrl.rdQLenPdf::11                       0                       # What read queue length does an incoming req see
system.mem_ctrl.rdQLenPdf::12                       0                       # What read queue length does an incoming req see
system.mem_ctrl.rdQLenPdf::13                       0                       # What read queue length does an incoming req see
system.mem_ctrl.rdQLenPdf::14                       0                       # What read queue length does an incoming req see
system.mem_ctrl.rdQLenPdf::15                       0                       # What read queue length does an incoming req see
system.mem_ctrl.rdQLenPdf::16                       0                       # What read queue length does an incoming req see
system.mem_ctrl.rdQLenPdf::17                       0                       # What read queue length does an incoming req see
system.mem_ctrl.rdQLenPdf::18                       0                       # What read queue length does an incoming req see
system.mem_ctrl.rdQLenPdf::19                       0                       # What read queue length does an incoming req see
system.mem_ctrl.rdQLenPdf::20                       0                       # What read queue length does an incoming req see
system.mem_ctrl.rdQLenPdf::21                       0                       # What read queue length does an incoming req see
system.mem_ctrl.rdQLenPdf::22                       0                       # What read queue length does an incoming req see
system.mem_ctrl.rdQLenPdf::23                       0                       # What read queue length does an incoming req see
system.mem_ctrl.rdQLenPdf::24                       0                       # What read queue length does an incoming req see
system.mem_ctrl.rdQLenPdf::25                       0                       # What read queue length does an incoming req see
system.mem_ctrl.rdQLenPdf::26                       0                       # What read queue length does an incoming req see
system.mem_ctrl.rdQLenPdf::27                       0                       # What read queue length does an incoming req see
system.mem_ctrl.rdQLenPdf::28                       0                       # What read queue length does an incoming req see
system.mem_ctrl.rdQLenPdf::29                       0                       # What read queue length does an incoming req see
system.mem_ctrl.rdQLenPdf::30                       0                       # What read queue length does an incoming req see
system.mem_ctrl.rdQLenPdf::31                       0                       # What read queue length does an incoming req see
system.mem_ctrl.wrQLenPdf::0                        1                       # What write queue length does an incoming req see
system.mem_ctrl.wrQLenPdf::1                        1                       # What write queue length does an incoming req see
system.mem_ctrl.wrQLenPdf::2                        1                       # What write queue length does an incoming req see
system.mem_ctrl.wrQLenPdf::3                        1                       # What write queue length does an incoming req see
system.mem_ctrl.wrQLenPdf::4                        1                       # What write queue length does an incoming req see
system.mem_ctrl.wrQLenPdf::5                        1                       # What write queue length does an incoming req see
system.mem_ctrl.wrQLenPdf::6                        1                       # What write queue length does an incoming req see
system.mem_ctrl.wrQLenPdf::7                        1                       # What write queue length does an incoming req see
system.mem_ctrl.wrQLenPdf::8                        1                       # What write queue length does an incoming req see
system.mem_ctrl.wrQLenPdf::9                        1                       # What write queue length does an incoming req see
system.mem_ctrl.wrQLenPdf::10                       1                       # What write queue length does an incoming req see
system.mem_ctrl.wrQLenPdf::11                       1                       # What write queue length does an incoming req see
system.mem_ctrl.wrQLenPdf::12                       1                       # What write queue length does an incoming req see
system.mem_ctrl.wrQLenPdf::13                       1                       # What write queue length does an incoming req see
system.mem_ctrl.wrQLenPdf::14                       1                       # What write queue length does an incoming req see
system.mem_ctrl.wrQLenPdf::15                       5                       # What write queue length does an incoming req see
system.mem_ctrl.wrQLenPdf::16                       5                       # What write queue length does an incoming req see
system.mem_ctrl.wrQLenPdf::17                      54                       # What write queue length does an incoming req see
system.mem_ctrl.wrQLenPdf::18                      53                       # What write queue length does an incoming req see
system.mem_ctrl.wrQLenPdf::19                      54                       # What write queue length does an incoming req see
system.mem_ctrl.wrQLenPdf::20                      53                       # What write queue length does an incoming req see
system.mem_ctrl.wrQLenPdf::21                      52                       # What write queue length does an incoming req see
system.mem_ctrl.wrQLenPdf::22                      52                       # What write queue length does an incoming req see
system.mem_ctrl.wrQLenPdf::23                      52                       # What write queue length does an incoming req see
system.mem_ctrl.wrQLenPdf::24                      52                       # What write queue length does an incoming req see
system.mem_ctrl.wrQLenPdf::25                      52                       # What write queue length does an incoming req see
system.mem_ctrl.wrQLenPdf::26                      52                       # What write queue length does an incoming req see
system.mem_ctrl.wrQLenPdf::27                      52                       # What write queue length does an incoming req see
system.mem_ctrl.wrQLenPdf::28                      52                       # What write queue length does an incoming req see
system.mem_ctrl.wrQLenPdf::29                      52                       # What write queue length does an incoming req see
system.mem_ctrl.wrQLenPdf::30                      52                       # What write queue length does an incoming req see
system.mem_ctrl.wrQLenPdf::31                      52                       # What write queue length does an incoming req see
system.mem_ctrl.wrQLenPdf::32                      52                       # What write queue length does an incoming req see
system.mem_ctrl.wrQLenPdf::33                       0                       # What write queue length does an incoming req see
system.mem_ctrl.wrQLenPdf::34                       0                       # What write queue length does an incoming req see
system.mem_ctrl.wrQLenPdf::35                       0                       # What write queue length does an incoming req see
system.mem_ctrl.wrQLenPdf::36                       0                       # What write queue length does an incoming req see
system.mem_ctrl.wrQLenPdf::37                       0                       # What write queue length does an incoming req see
system.mem_ctrl.wrQLenPdf::38                       0                       # What write queue length does an incoming req see
system.mem_ctrl.wrQLenPdf::39                       0                       # What write queue length does an incoming req see
system.mem_ctrl.wrQLenPdf::40                       0                       # What write queue length does an incoming req see
system.mem_ctrl.wrQLenPdf::41                       0                       # What write queue length does an incoming req see
system.mem_ctrl.wrQLenPdf::42                       0                       # What write queue length does an incoming req see
system.mem_ctrl.wrQLenPdf::43                       0                       # What write queue length does an incoming req see
system.mem_ctrl.wrQLenPdf::44                       0                       # What write queue length does an incoming req see
system.mem_ctrl.wrQLenPdf::45                       0                       # What write queue length does an incoming req see
system.mem_ctrl.wrQLenPdf::46                       0                       # What write queue length does an incoming req see
system.mem_ctrl.wrQLenPdf::47                       0                       # What write queue length does an incoming req see
system.mem_ctrl.wrQLenPdf::48                       0                       # What write queue length does an incoming req see
system.mem_ctrl.wrQLenPdf::49                       0                       # What write queue length does an incoming req see
system.mem_ctrl.wrQLenPdf::50                       0                       # What write queue length does an incoming req see
system.mem_ctrl.wrQLenPdf::51                       0                       # What write queue length does an incoming req see
system.mem_ctrl.wrQLenPdf::52                       0                       # What write queue length does an incoming req see
system.mem_ctrl.wrQLenPdf::53                       0                       # What write queue length does an incoming req see
system.mem_ctrl.wrQLenPdf::54                       0                       # What write queue length does an incoming req see
system.mem_ctrl.wrQLenPdf::55                       0                       # What write queue length does an incoming req see
system.mem_ctrl.wrQLenPdf::56                       0                       # What write queue length does an incoming req see
system.mem_ctrl.wrQLenPdf::57                       0                       # What write queue length does an incoming req see
system.mem_ctrl.wrQLenPdf::58                       0                       # What write queue length does an incoming req see
system.mem_ctrl.wrQLenPdf::59                       0                       # What write queue length does an incoming req see
system.mem_ctrl.wrQLenPdf::60                       0                       # What write queue length does an incoming req see
system.mem_ctrl.wrQLenPdf::61                       0                       # What write queue length does an incoming req see
system.mem_ctrl.wrQLenPdf::62                       0                       # What write queue length does an incoming req see
system.mem_ctrl.wrQLenPdf::63                       0                       # What write queue length does an incoming req see
system.mem_ctrl.bytesPerActivate::samples        15800                       # Bytes accessed per row activation
system.mem_ctrl.bytesPerActivate::mean     640.477975                       # Bytes accessed per row activation
system.mem_ctrl.bytesPerActivate::gmean    423.124146                       # Bytes accessed per row activation
system.mem_ctrl.bytesPerActivate::stdev    410.756693                       # Bytes accessed per row activation
system.mem_ctrl.bytesPerActivate::0-127          2843     17.99%     17.99% # Bytes accessed per row activation
system.mem_ctrl.bytesPerActivate::128-255         1811     11.46%     29.46% # Bytes accessed per row activation
system.mem_ctrl.bytesPerActivate::256-383          818      5.18%     34.63% # Bytes accessed per row activation
system.mem_ctrl.bytesPerActivate::384-511          643      4.07%     38.70% # Bytes accessed per row activation
system.mem_ctrl.bytesPerActivate::512-639          770      4.87%     43.58% # Bytes accessed per row activation
system.mem_ctrl.bytesPerActivate::640-767          656      4.15%     47.73% # Bytes accessed per row activation
system.mem_ctrl.bytesPerActivate::768-895          475      3.01%     50.73% # Bytes accessed per row activation
system.mem_ctrl.bytesPerActivate::896-1023          351      2.22%     52.96% # Bytes accessed per row activation
system.mem_ctrl.bytesPerActivate::1024-1151         7433     47.04%    100.00% # Bytes accessed per row activation
system.mem_ctrl.bytesPerActivate::total         15800                       # Bytes accessed per row activation
system.mem_ctrl.rdPerTurnAround::samples           52                       # Reads before turning the bus around for writes
system.mem_ctrl.rdPerTurnAround::mean     2994.173077                       # Reads before turning the bus around for writes
system.mem_ctrl.rdPerTurnAround::stdev   10144.088837                       # Reads before turning the bus around for writes
system.mem_ctrl.rdPerTurnAround::0-4095            47     90.38%     90.38% # Reads before turning the bus around for writes
system.mem_ctrl.rdPerTurnAround::4096-8191            2      3.85%     94.23% # Reads before turning the bus around for writes
system.mem_ctrl.rdPerTurnAround::8192-12287            2      3.85%     98.08% # Reads before turning the bus around for writes
system.mem_ctrl.rdPerTurnAround::69632-73727            1      1.92%    100.00% # Reads before turning the bus around for writes
system.mem_ctrl.rdPerTurnAround::total             52                       # Reads before turning the bus around for writes
system.mem_ctrl.wrPerTurnAround::samples           52                       # Writes before turning the bus around for reads
system.mem_ctrl.wrPerTurnAround::mean       16.192308                       # Writes before turning the bus around for reads
system.mem_ctrl.wrPerTurnAround::gmean      16.178369                       # Writes before turning the bus around for reads
system.mem_ctrl.wrPerTurnAround::stdev       0.715061                       # Writes before turning the bus around for reads
system.mem_ctrl.wrPerTurnAround::16                48     92.31%     92.31% # Writes before turning the bus around for reads
system.mem_ctrl.wrPerTurnAround::18                 3      5.77%     98.08% # Writes before turning the bus around for reads
system.mem_ctrl.wrPerTurnAround::20                 1      1.92%    100.00% # Writes before turning the bus around for reads
system.mem_ctrl.wrPerTurnAround::total             52                       # Writes before turning the bus around for reads
system.mem_ctrl.masterReadBytes::.cpu.inst      1054008                       # Per-master bytes read from memory
system.mem_ctrl.masterReadBytes::.cpu.data       137353                       # Per-master bytes read from memory
system.mem_ctrl.masterWriteBytes::.cpu.data         5998                       # Per-master bytes write to memory
system.mem_ctrl.masterReadRate::.cpu.inst 121876913.346056699753                       # Per-master bytes read from memory rate (Bytes/sec)
system.mem_ctrl.masterReadRate::.cpu.data 15882383.889705700800                       # Per-master bytes read from memory rate (Bytes/sec)
system.mem_ctrl.masterWriteRate::.cpu.data 693559.940958368476                       # Per-master bytes write to memory rate (Bytes/sec)
system.mem_ctrl.masterReadAccesses::.cpu.inst       131751                       # Per-master read serviced memory accesses
system.mem_ctrl.masterReadAccesses::.cpu.data        27220                       # Per-master read serviced memory accesses
system.mem_ctrl.masterWriteAccesses::.cpu.data        13990                       # Per-master write serviced memory accesses
system.mem_ctrl.masterReadTotalLat::.cpu.inst   3625394250                       # Per-master read total memory access latency
system.mem_ctrl.masterReadTotalLat::.cpu.data    812185250                       # Per-master read total memory access latency
system.mem_ctrl.masterWriteTotalLat::.cpu.data 237407362750                       # Per-master write total memory access latency
system.mem_ctrl.masterReadAvgLat::.cpu.inst     27517.02                       # Per-master read average memory access latency
system.mem_ctrl.masterReadAvgLat::.cpu.data     29837.81                       # Per-master read average memory access latency
system.mem_ctrl.masterWriteAvgLat::.cpu.data  16969790.05                       # Per-master write average memory access latency
system.mem_ctrl.totQLat                    1488410750                       # Total ticks spent queuing
system.mem_ctrl.totMemAccLat               4437579500                       # Total ticks spent from burst creation until serviced by the DRAM
system.mem_ctrl.totBusLat                   786445000                       # Total ticks spent in databus transfers
system.mem_ctrl.avgQLat                       9462.90                       # Average queueing delay per DRAM burst
system.mem_ctrl.avgBusLat                     5000.00                       # Average bus latency per DRAM burst
system.mem_ctrl.avgMemAccLat                 28212.90                       # Average memory access latency per DRAM burst
system.mem_ctrl.avgRdBW                       1164.01                       # Average DRAM read bandwidth in MiByte/s
system.mem_ctrl.avgWrBW                          6.23                       # Average achieved write bandwidth in MiByte/s
system.mem_ctrl.avgRdBWSys                     139.23                       # Average system read bandwidth in MiByte/s
system.mem_ctrl.avgWrBWSys                      10.35                       # Average system write bandwidth in MiByte/s
system.mem_ctrl.peakBW                       12800.00                       # Theoretical peak bandwidth in MiByte/s
system.mem_ctrl.busUtil                          9.14                       # Data bus utilization in percentage
system.mem_ctrl.busUtilRead                      9.09                       # Data bus utilization in percentage for reads
system.mem_ctrl.busUtilWrite                     0.05                       # Data bus utilization in percentage for writes
system.mem_ctrl.avgRdQLen                        1.00                       # Average read queue length when enqueuing
system.mem_ctrl.avgWrQLen                       28.16                       # Average write queue length when enqueuing
system.mem_ctrl.readRowHits                    141565                       # Number of row buffer hits during reads
system.mem_ctrl.writeRowHits                      763                       # Number of row buffer hits during writes
system.mem_ctrl.readRowHitRate                  90.00                       # Row buffer hit rate for reads
system.mem_ctrl.writeRowHitRate                 88.41                       # Row buffer hit rate for writes
system.mem_ctrl.avgGap                       50000.08                       # Average gap between requests
system.mem_ctrl.pageHitRate                     89.99                       # Row buffer hit rate, read and write combined
system.mem_ctrl_0.actEnergy                  76126680                       # Energy for activate commands per rank (pJ)
system.mem_ctrl_0.preEnergy                  40458495                       # Energy for precharge commands per rank (pJ)
system.mem_ctrl_0.readEnergy                856807140                       # Energy for read commands per rank (pJ)
system.mem_ctrl_0.writeEnergy                 1545120                       # Energy for write commands per rank (pJ)
system.mem_ctrl_0.refreshEnergy          675489360.000000                       # Energy for refresh commands per rank (pJ)
system.mem_ctrl_0.actBackEnergy            1622037600                       # Energy for active background per rank (pJ)
system.mem_ctrl_0.preBackEnergy              26158560                       # Energy for precharge background per rank (pJ)
system.mem_ctrl_0.actPowerDownEnergy       2078850990                       # Energy for active power-down per rank (pJ)
system.mem_ctrl_0.prePowerDownEnergy        144823200                       # Energy for precharge power-down per rank (pJ)
system.mem_ctrl_0.selfRefreshEnergy          25822860                       # Energy for self refresh per rank (pJ)
system.mem_ctrl_0.totalEnergy              5548294155                       # Total energy per rank (pJ)
system.mem_ctrl_0.averagePower             641.559614                       # Core power per rank (mW)
system.mem_ctrl_0.totalIdleTime            5023466250                       # Total Idle time Per DRAM Rank
system.mem_ctrl_0.memoryStateTime::IDLE      20524250                       # Time in different power states
system.mem_ctrl_0.memoryStateTime::REF      285740000                       # Time in different power states
system.mem_ctrl_0.memoryStateTime::SREF      86501000                       # Time in different power states
system.mem_ctrl_0.memoryStateTime::PRE_PDN    377111000                       # Time in different power states
system.mem_ctrl_0.memoryStateTime::ACT     3318404500                       # Time in different power states
system.mem_ctrl_0.memoryStateTime::ACT_PDN   4559854250                       # Time in different power states
system.mem_ctrl_1.actEnergy                  36706740                       # Energy for activate commands per rank (pJ)
system.mem_ctrl_1.preEnergy                  19502505                       # Energy for precharge commands per rank (pJ)
system.mem_ctrl_1.readEnergy                266229180                       # Energy for read commands per rank (pJ)
system.mem_ctrl_1.writeEnergy                 2850120                       # Energy for write commands per rank (pJ)
system.mem_ctrl_1.refreshEnergy          651518400.000000                       # Energy for refresh commands per rank (pJ)
system.mem_ctrl_1.actBackEnergy             623470560                       # Energy for active background per rank (pJ)
system.mem_ctrl_1.preBackEnergy              19686720                       # Energy for precharge background per rank (pJ)
system.mem_ctrl_1.actPowerDownEnergy       2700728970                       # Energy for active power-down per rank (pJ)
system.mem_ctrl_1.prePowerDownEnergy        353767680                       # Energy for precharge power-down per rank (pJ)
system.mem_ctrl_1.selfRefreshEnergy         108027420                       # Energy for self refresh per rank (pJ)
system.mem_ctrl_1.totalEnergy              4782488295                       # Total energy per rank (pJ)
system.mem_ctrl_1.averagePower             553.008053                       # Core power per rank (mW)
system.mem_ctrl_1.totalIdleTime            7229754250                       # Total Idle time Per DRAM Rank
system.mem_ctrl_1.memoryStateTime::IDLE      14718000                       # Time in different power states
system.mem_ctrl_1.memoryStateTime::REF      275600000                       # Time in different power states
system.mem_ctrl_1.memoryStateTime::SREF     385687750                       # Time in different power states
system.mem_ctrl_1.memoryStateTime::PRE_PDN    921429250                       # Time in different power states
system.mem_ctrl_1.memoryStateTime::ACT     1127447000                       # Time in different power states
system.mem_ctrl_1.memoryStateTime::ACT_PDN   5923253000                       # Time in different power states
system.pwrStateResidencyTicks::UNDEFINED   8648135000                       # Cumulative time (in ticks) in various power states
system.checker.pwrStateResidencyTicks::UNDEFINED   8648135000                       # Cumulative time (in ticks) in various power states
system.cpu.dtb.walker.pwrStateResidencyTicks::UNDEFINED   8648135000                       # Cumulative time (in ticks) in various power states
system.cpu.dtb.rdAccesses                       27220                       # TLB accesses on read requests
system.cpu.dtb.wrAccesses                       13990                       # TLB accesses on write requests
system.cpu.dtb.rdMisses                           100                       # TLB misses on read requests
system.cpu.dtb.wrMisses                            16                       # TLB misses on write requests
system.cpu.apic_clk_domain.clock                 8000                       # Clock period in ticks
system.cpu.interrupts.pwrStateResidencyTicks::UNDEFINED   8648135000                       # Cumulative time (in ticks) in various power states
system.cpu.itb.walker.pwrStateResidencyTicks::UNDEFINED   8648135000                       # Cumulative time (in ticks) in various power states
system.cpu.itb.rdAccesses                           0                       # TLB accesses on read requests
system.cpu.itb.wrAccesses                      131751                       # TLB accesses on write requests
system.cpu.itb.rdMisses                             0                       # TLB misses on read requests
system.cpu.itb.wrMisses                            96                       # TLB misses on write requests
system.cpu.workload.numSyscalls                    32                       # Number of system calls
system.cpu.pwrStateResidencyTicks::ON      8648135000                       # Cumulative time (in ticks) in various power states
system.cpu.numCycles                         17296270                       # number of cpu cycles simulated
system.cpu.numWorkItemsStarted                      0                       # number of work items this cpu started
system.cpu.numWorkItemsCompleted                    0                       # number of work items this cpu completed
system.cpu.committedInsts                      100000                       # Number of instructions committed
system.cpu.committedOps                        183301                       # Number of ops (including micro ops) committed
system.cpu.num_int_alu_accesses                179958                       # Number of integer alu accesses
system.cpu.num_fp_alu_accesses                    247                       # Number of float alu accesses
system.cpu.num_vec_alu_accesses                     0                       # Number of vector alu accesses
system.cpu.num_func_calls                        1797                       # number of times a function call or return occured
system.cpu.num_conditional_control_insts        19492                       # number of instructions that are conditional controls
system.cpu.num_int_insts                       179958                       # number of integer instructions
system.cpu.num_fp_insts                           247                       # number of float instructions
system.cpu.num_vec_insts                            0                       # number of vector instructions
system.cpu.num_int_register_reads              372152                       # number of times the integer registers were read
system.cpu.num_int_register_writes             149591                       # number of times the integer registers were written
system.cpu.num_fp_register_reads                  215                       # number of times the floating registers were read
system.cpu.num_fp_register_writes                 131                       # number of times the floating registers were written
system.cpu.num_vec_register_reads                   0                       # number of times the vector registers were read
system.cpu.num_vec_register_writes                  0                       # number of times the vector registers were written
system.cpu.num_cc_register_reads               122580                       # number of times the CC registers were read
system.cpu.num_cc_register_writes               76305                       # number of times the CC registers were written
system.cpu.num_mem_refs                         41208                       # number of memory refs
system.cpu.num_load_insts                       27220                       # Number of load instructions
system.cpu.num_store_insts                      13988                       # Number of store instructions
system.cpu.num_idle_cycles                          0                       # Number of idle cycles
system.cpu.num_busy_cycles                   17296270                       # Number of busy cycles
system.cpu.not_idle_fraction                        1                       # Percentage of non-idle cycles
system.cpu.idle_fraction                            0                       # Percentage of idle cycles
system.cpu.Branches                             21897                       # Number of branches fetched
system.cpu.op_class::No_OpClass                  3290      1.79%      1.79% # Class of executed instruction
system.cpu.op_class::IntAlu                    137250     74.88%     76.67% # Class of executed instruction
system.cpu.op_class::IntMult                       29      0.02%     76.69% # Class of executed instruction
system.cpu.op_class::IntDiv                      1426      0.78%     77.47% # Class of executed instruction
system.cpu.op_class::FloatAdd                      17      0.01%     77.47% # Class of executed instruction
system.cpu.op_class::FloatCmp                       0      0.00%     77.47% # Class of executed instruction
system.cpu.op_class::FloatCvt                      32      0.02%     77.49% # Class of executed instruction
system.cpu.op_class::FloatMult                      0      0.00%     77.49% # Class of executed instruction
system.cpu.op_class::FloatMultAcc                   0      0.00%     77.49% # Class of executed instruction
system.cpu.op_class::FloatDiv                       0      0.00%     77.49% # Class of executed instruction
system.cpu.op_class::FloatMisc                      0      0.00%     77.49% # Class of executed instruction
system.cpu.op_class::FloatSqrt                      0      0.00%     77.49% # Class of executed instruction
system.cpu.op_class::SimdAdd                        0      0.00%     77.49% # Class of executed instruction
system.cpu.op_class::SimdAddAcc                     0      0.00%     77.49% # Class of executed instruction
system.cpu.op_class::SimdAlu                        2      0.00%     77.49% # Class of executed instruction
system.cpu.op_class::SimdCmp                        0      0.00%     77.49% # Class of executed instruction
system.cpu.op_class::SimdCvt                       20      0.01%     77.50% # Class of executed instruction
system.cpu.op_class::SimdMisc                      27      0.01%     77.52% # Class of executed instruction
system.cpu.op_class::SimdMult                       0      0.00%     77.52% # Class of executed instruction
system.cpu.op_class::SimdMultAcc                    0      0.00%     77.52% # Class of executed instruction
system.cpu.op_class::SimdShift                      0      0.00%     77.52% # Class of executed instruction
system.cpu.op_class::SimdShiftAcc                   0      0.00%     77.52% # Class of executed instruction
system.cpu.op_class::SimdSqrt                       0      0.00%     77.52% # Class of executed instruction
system.cpu.op_class::SimdFloatAdd                   0      0.00%     77.52% # Class of executed instruction
system.cpu.op_class::SimdFloatAlu                   0      0.00%     77.52% # Class of executed instruction
system.cpu.op_class::SimdFloatCmp                   0      0.00%     77.52% # Class of executed instruction
system.cpu.op_class::SimdFloatCvt                   0      0.00%     77.52% # Class of executed instruction
system.cpu.op_class::SimdFloatDiv                   0      0.00%     77.52% # Class of executed instruction
system.cpu.op_class::SimdFloatMisc                  0      0.00%     77.52% # Class of executed instruction
system.cpu.op_class::SimdFloatMult                  0      0.00%     77.52% # Class of executed instruction
system.cpu.op_class::SimdFloatMultAcc               0      0.00%     77.52% # Class of executed instruction
system.cpu.op_class::SimdFloatSqrt                  0      0.00%     77.52% # Class of executed instruction
system.cpu.op_class::SimdAes                        0      0.00%     77.52% # Class of executed instruction
system.cpu.op_class::SimdAesMix                     0      0.00%     77.52% # Class of executed instruction
system.cpu.op_class::SimdSha1Hash                   0      0.00%     77.52% # Class of executed instruction
system.cpu.op_class::SimdSha1Hash2                  0      0.00%     77.52% # Class of executed instruction
system.cpu.op_class::SimdSha256Hash                 0      0.00%     77.52% # Class of executed instruction
system.cpu.op_class::SimdSha256Hash2                0      0.00%     77.52% # Class of executed instruction
system.cpu.op_class::SimdShaSigma2                  0      0.00%     77.52% # Class of executed instruction
system.cpu.op_class::SimdShaSigma3                  0      0.00%     77.52% # Class of executed instruction
system.cpu.op_class::MemRead                    27146     14.81%     92.33% # Class of executed instruction
system.cpu.op_class::MemWrite                   13924      7.60%     99.92% # Class of executed instruction
system.cpu.op_class::FloatMemRead                  74      0.04%     99.97% # Class of executed instruction
system.cpu.op_class::FloatMemWrite                 64      0.03%    100.00% # Class of executed instruction
system.cpu.op_class::IprAccess                      0      0.00%    100.00% # Class of executed instruction
system.cpu.op_class::InstPrefetch                   0      0.00%    100.00% # Class of executed instruction
system.cpu.op_class::total                     183301                       # Class of executed instruction
system.membus.snoop_filter.tot_requests             0                       # Total number of requests made to the snoop filter.
system.membus.snoop_filter.hit_single_requests            0                       # Number of requests hitting in the snoop filter with a single holder of the requested data.
system.membus.snoop_filter.hit_multi_requests            0                       # Number of requests hitting in the snoop filter with multiple (>1) holders of the requested data.
system.membus.snoop_filter.tot_snoops               0                       # Total number of snoops made to the snoop filter.
system.membus.snoop_filter.hit_single_snoops            0                       # Number of snoops hitting in the snoop filter with a single holder of the requested data.
system.membus.snoop_filter.hit_multi_snoops            0                       # Number of snoops hitting in the snoop filter with multiple (>1) holders of the requested data.
system.membus.pwrStateResidencyTicks::UNDEFINED   8648135000                       # Cumulative time (in ticks) in various power states
system.membus.trans_dist::ReadReq              158971                       # Transaction distribution
system.membus.trans_dist::ReadResp             158970                       # Transaction distribution
system.membus.trans_dist::WriteReq              13990                       # Transaction distribution
system.membus.trans_dist::WriteResp             13990                       # Transaction distribution
system.membus.pkt_count_system.checker-master::system.mem_ctrl.port        82420                       # Packet count per connected master and slave (bytes)
system.membus.pkt_count_system.checker-master::total        82420                       # Packet count per connected master and slave (bytes)
system.membus.pkt_count_system.cpu.icache_port::system.mem_ctrl.port       263501                       # Packet count per connected master and slave (bytes)
system.membus.pkt_count_system.cpu.icache_port::total       263501                       # Packet count per connected master and slave (bytes)
system.membus.pkt_count::total                 345921                       # Packet count per connected master and slave (bytes)
system.membus.pkt_size_system.checker-master::system.mem_ctrl.port       239643                       # Cumulative packet size per connected master and slave (bytes)
system.membus.pkt_size_system.checker-master::total       239643                       # Cumulative packet size per connected master and slave (bytes)
system.membus.pkt_size_system.cpu.icache_port::system.mem_ctrl.port      1054000                       # Cumulative packet size per connected master and slave (bytes)
system.membus.pkt_size_system.cpu.icache_port::total      1054000                       # Cumulative packet size per connected master and slave (bytes)
system.membus.pkt_size::total                 1293643                       # Cumulative packet size per connected master and slave (bytes)
system.membus.snoops                                0                       # Total snoops (count)
system.membus.snoopTraffic                          0                       # Total snoop traffic (bytes)
system.membus.snoop_fanout::samples            172961                       # Request fanout histogram
system.membus.snoop_fanout::mean                    0                       # Request fanout histogram
system.membus.snoop_fanout::stdev                   0                       # Request fanout histogram
system.membus.snoop_fanout::underflows              0      0.00%      0.00% # Request fanout histogram
system.membus.snoop_fanout::0                  172961    100.00%    100.00% # Request fanout histogram
system.membus.snoop_fanout::1                       0      0.00%    100.00% # Request fanout histogram
system.membus.snoop_fanout::overflows               0      0.00%    100.00% # Request fanout histogram
system.membus.snoop_fanout::min_value               0                       # Request fanout histogram
system.membus.snoop_fanout::max_value               0                       # Request fanout histogram
system.membus.snoop_fanout::total              172961                       # Request fanout histogram
system.membus.reqLayer2.occupancy            93475500                       # Layer occupancy (ticks)
system.membus.reqLayer2.utilization               1.1                       # Layer utilization (%)
system.membus.respLayer0.occupancy           39653750                       # Layer occupancy (ticks)
system.membus.respLayer0.utilization              0.5                       # Layer utilization (%)
system.membus.respLayer1.occupancy          162645500                       # Layer occupancy (ticks)
system.membus.respLayer1.utilization              1.9                       # Layer utilization (%)

---------- End Simulation Statistics   ----------
